<configuration xmlns:xsi="http://www.w3.org/2001/XMLSchema-instance" xsi:noNamespaceSchemaLocation="http://sumo.dlr.de/xsd/duarouterConfiguration.xsd">

    <input>
        <net-file value="/Users/lsjnancy/Desktop/Summer2019/7_miscellaneous/2019-06-14/UI_designV3.net.xml"/>
        <route-files value="/Users/lsjnancy/Desktop/Summer2019/7_miscellaneous/2019-06-14/V3test.rou.xml"/>
        <!--<additional-files value="Users/lsjnancy/Desktop/Summer2019/7_miscellaneous/2019-06-14/.add.xml"/>-->

    </input>

	<output>
        <full-output value="/Users/lsjnancy/Desktop/Summer2019/7_miscellaneous/2019-06-14/V3test_output.xml"/>
    </output>

    <time>
        <begin value="0"/>
        <end value="300.0"/>
    </time>
</configuration>