<edges>

	<edge id="e1" from="n21" to="n22" priority="1" numLanes="3" speed="13.89"/>	
	<edge id="e2" from="n22" to="n21" priority="1" numLanes="3" speed="13.89"/>	

	<edge id="e3" from="n22" to="n23" priority="1" numLanes="3" speed="13.89"/>	
	<edge id="e4" from="n23" to="n22" priority="1" numLanes="3" speed="13.89"/>	

	<edge id="e5" from="n23" to="n24" priority="1" numLanes="3" speed="13.89"/>	
	<edge id="e6" from="n24" to="n23" priority="1" numLanes="3" speed="13.89"/>	

	<edge id="e7" from="n24" to="n25" priority="1" numLanes="3" speed="13.89"/>	
	<edge id="e8" from="n25" to="n24" priority="1" numLanes="3" speed="13.89"/>	

	<edge id="e9" from="n16" to="n21" priority="1" numLanes="3" speed="13.89"/>	
	<edge id="e10" from="n21" to="n16" priority="1" numLanes="3" speed="13.89"/>

	<edge id="e11" from="n17" to="n22" priority="1" numLanes="3" speed="13.89"/>	
	<edge id="e12" from="n22" to="n17" priority="1" numLanes="3" speed="13.89"/>

	<edge id="e13" from="n18" to="n23" priority="1" numLanes="3" speed="13.89"/>	
	<edge id="e14" from="n23" to="n18" priority="1" numLanes="3" speed="13.89"/>

	<edge id="e15" from="n19" to="n24" priority="1" numLanes="3" speed="13.89"/>	
	<edge id="e16" from="n24" to="n19" priority="1" numLanes="3" speed="13.89"/>	

	<edge id="e17" from="n20" to="n25" priority="1" numLanes="3" speed="13.89"/>	
	<edge id="e18" from="n25" to="n20" priority="1" numLanes="3" speed="13.89"/>

	<edge id="e19" from="n16" to="n17" priority="1" numLanes="3" speed="13.89"/>	
	<edge id="e20" from="n17" to="n16" priority="1" numLanes="3" speed="13.89"/>

	<edge id="e21" from="n17" to="n18" priority="1" numLanes="3" speed="13.89"/>	
	<edge id="e22" from="n18" to="n17" priority="1" numLanes="3" speed="13.89"/>	

	<edge id="e23" from="n18" to="n19" priority="1" numLanes="3" speed="13.89"/>	
	<edge id="e24" from="n19" to="n18" priority="1" numLanes="3" speed="13.89"/>

	<edge id="e25" from="n19" to="n20" priority="1" numLanes="3" speed="13.89"/>	
	<edge id="e26" from="n20" to="n19" priority="1" numLanes="3" speed="13.89"/>

	<edge id="e27" from="n11" to="n16" priority="1" numLanes="3" speed="13.89"/>	
	<edge id="e28" from="n16" to="n11" priority="1" numLanes="3" speed="13.89"/>

	<edge id="e29" from="n12" to="n17" priority="1" numLanes="3" speed="13.89"/>	
	<edge id="e30" from="n17" to="n12" priority="1" numLanes="3" speed="13.89"/>

	<edge id="e31" from="n13" to="n18" priority="1" numLanes="3" speed="13.89"/>	
	<edge id="e32" from="n18" to="n13" priority="1" numLanes="3" speed="13.89"/>	

	<edge id="e33" from="n14" to="n19" priority="1" numLanes="3" speed="13.89"/>	
	<edge id="e34" from="n19" to="n14" priority="1" numLanes="3" speed="13.89"/>

	<edge id="e35" from="n15" to="n20" priority="1" numLanes="3" speed="13.89"/>	
	<edge id="e36" from="n20" to="n15" priority="1" numLanes="3" speed="13.89"/>

	<edge id="e37" from="n11" to="n12" priority="1" numLanes="3" speed="13.89"/>	
	<edge id="e38" from="n12" to="n11" priority="1" numLanes="3" speed="13.89"/>

	<edge id="e39" from="n12" to="n13" priority="1" numLanes="3" speed="13.89"/>	
	<edge id="e40" from="n13" to="n12" priority="1" numLanes="3" speed="13.89"/>

	<edge id="e41" from="n13" to="n14" priority="1" numLanes="3" speed="13.89"/>	
	<edge id="e42" from="n14" to="n13" priority="1" numLanes="3" speed="13.89"/>	

	<edge id="e43" from="n14" to="n15" priority="1" numLanes="3" speed="13.89"/>	
	<edge id="e44" from="n15" to="n14" priority="1" numLanes="3" speed="13.89"/>

	<edge id="e45" from="n6" to="n11" priority="1" numLanes="3" speed="13.89"/>	
	<edge id="e46" from="n11" to="n6" priority="1" numLanes="3" speed="13.89"/>

	<edge id="e47" from="n7" to="n12" priority="1" numLanes="3" speed="13.89"/>	
	<edge id="e48" from="n12" to="n7" priority="1" numLanes="3" speed="13.89"/>

	<edge id="e49" from="n8" to="n13" priority="1" numLanes="3" speed="13.89"/>	
	<edge id="e50" from="n13" to="n8" priority="1" numLanes="3" speed="13.89"/>

	<edge id="e51" from="n9" to="n14" priority="1" numLanes="3" speed="13.89"/>	
	<edge id="e52" from="n14" to="n9" priority="1" numLanes="3" speed="13.89"/>	

	<edge id="e53" from="n10" to="n15" priority="1" numLanes="3" speed="13.89"/>	
	<edge id="e54" from="n15" to="n10" priority="1" numLanes="3" speed="13.89"/>

	<edge id="e55" from="n6" to="n7" priority="1" numLanes="3" speed="13.89"/>	
	<edge id="e56" from="n7" to="n6" priority="1" numLanes="3" speed="13.89"/>

	<edge id="e57" from="n7" to="n8" priority="1" numLanes="3" speed="13.89"/>	
	<edge id="e58" from="n8" to="n7" priority="1" numLanes="3" speed="13.89"/>

	<edge id="e59" from="n8" to="n9" priority="1" numLanes="3" speed="13.89"/>	
	<edge id="e60" from="n9" to="n8" priority="1" numLanes="3" speed="13.89"/>

	<edge id="e61" from="n9" to="n10" priority="1" numLanes="3" speed="13.89"/>	
	<edge id="e62" from="n10" to="n9" priority="1" numLanes="3" speed="13.89"/>	

	<edge id="e63" from="n1" to="n6" priority="1" numLanes="3" speed="13.89"/>	
	<edge id="e64" from="n6" to="n1" priority="1" numLanes="3" speed="13.89"/>

	<edge id="e65" from="n2" to="n7" priority="1" numLanes="3" speed="13.89"/>	
	<edge id="e66" from="n7" to="n2" priority="1" numLanes="3" speed="13.89"/>

	<edge id="e67" from="n3" to="n8" priority="1" numLanes="3" speed="13.89"/>	
	<edge id="e68" from="n8" to="n3" priority="1" numLanes="3" speed="13.89"/>

	<edge id="e69" from="n4" to="n9" priority="1" numLanes="3" speed="13.89"/>	
	<edge id="e70" from="n9" to="n4" priority="1" numLanes="3" speed="13.89"/>

	<edge id="e71" from="n5" to="n10" priority="1" numLanes="3" speed="13.89"/>	
	<edge id="e72" from="n10" to="n5" priority="1" numLanes="3" speed="13.89"/>	

	<edge id="e73" from="n1" to="n2" priority="1" numLanes="3" speed="13.89"/>	
	<edge id="e74" from="n2" to="n1" priority="1" numLanes="3" speed="13.89"/>	

	<edge id="e75" from="n2" to="n3" priority="1" numLanes="3" speed="13.89"/>	
	<edge id="e76" from="n3" to="n2" priority="1" numLanes="3" speed="13.89"/>

	<edge id="e77" from="n3" to="n4" priority="1" numLanes="3" speed="13.89"/>	
	<edge id="e78" from="n4" to="n3" priority="1" numLanes="3" speed="13.89"/>

	<edge id="e79" from="n4" to="n5" priority="1" numLanes="3" speed="13.89"/>	
	<edge id="e80" from="n5" to="n4" priority="1" numLanes="3" speed="13.89"/>

	<edge id="i26" from="n25" to="n26" priority="1" numLanes="3" speed="13.89"/>
	<edge id="o26" from="n26" to="n25" priority="1" numLanes="3" speed="13.89"/>
	<edge id="i27" from="n20" to="n27" priority="1" numLanes="3" speed="13.89"/>
	<edge id="o27" from="n27" to="n20" priority="1" numLanes="3" speed="13.89"/>
	<edge id="i28" from="n15" to="n28" priority="1" numLanes="3" speed="13.89"/>
	<edge id="o28" from="n28" to="n15" priority="1" numLanes="3" speed="13.89"/>
	<edge id="i29" from="n10" to="n29" priority="1" numLanes="3" speed="13.89"/>
	<edge id="o29" from="n29" to="n10" priority="1" numLanes="3" speed="13.89"/>
	<edge id="i30" from="n5" to="n30" priority="1" numLanes="3" speed="13.89"/>
	<edge id="o30" from="n30" to="n5" priority="1" numLanes="3" speed="13.89"/>

	<edge id="i31" from="n5" to="n31" priority="1" numLanes="3" speed="13.89"/>
	<edge id="o31" from="n31" to="n5" priority="1" numLanes="3" speed="13.89"/>
	<edge id="i32" from="n4" to="n32" priority="1" numLanes="3" speed="13.89"/>
	<edge id="o32" from="n32" to="n4" priority="1" numLanes="3" speed="13.89"/>
	<edge id="i33" from="n3" to="n33" priority="1" numLanes="3" speed="13.89"/>
	<edge id="o33" from="n33" to="n3" priority="1" numLanes="3" speed="13.89"/>
	<edge id="i34" from="n2" to="n34" priority="1" numLanes="3" speed="13.89"/>
	<edge id="o34" from="n34" to="n2" priority="1" numLanes="3" speed="13.89"/>
	<edge id="i35" from="n1" to="n35" priority="1" numLanes="3" speed="13.89"/>
	<edge id="o35" from="n35" to="n1" priority="1" numLanes="3" speed="13.89"/>

	<edge id="i36" from="n1" to="n36" priority="1" numLanes="3" speed="13.89"/>
	<edge id="o36" from="n36" to="n1" priority="1" numLanes="3" speed="13.89"/>
	<edge id="i37" from="n6" to="n37" priority="1" numLanes="3" speed="13.89"/>
	<edge id="o37" from="n37" to="n6" priority="1" numLanes="3" speed="13.89"/>
	<edge id="i38" from="n11" to="n38" priority="1" numLanes="3" speed="13.89"/>
	<edge id="o38" from="n38" to="n11" priority="1" numLanes="3" speed="13.89"/>
	<edge id="i39" from="n16" to="n39" priority="1" numLanes="3" speed="13.89"/>
	<edge id="o39" from="n39" to="n16" priority="1" numLanes="3" speed="13.89"/>
	<edge id="i40" from="n21" to="n40" priority="1" numLanes="3" speed="13.89"/>
	<edge id="o40" from="n40" to="n21" priority="1" numLanes="3" speed="13.89"/>

	<edge id="i41" from="n21" to="n41" priority="1" numLanes="3" speed="13.89"/>
	<edge id="o41" from="n41" to="n21" priority="1" numLanes="3" speed="13.89"/>
	<edge id="i42" from="n22" to="n42" priority="1" numLanes="3" speed="13.89"/>
	<edge id="o42" from="n42" to="n22" priority="1" numLanes="3" speed="13.89"/>
	<edge id="i43" from="n23" to="n43" priority="1" numLanes="3" speed="13.89"/>
	<edge id="o43" from="n43" to="n23" priority="1" numLanes="3" speed="13.89"/>
	<edge id="i44" from="n24" to="n44" priority="1" numLanes="3" speed="13.89"/>
	<edge id="o44" from="n44" to="n24" priority="1" numLanes="3" speed="13.89"/>
	<edge id="i45" from="n25" to="n45" priority="1" numLanes="3" speed="13.89"/>
	<edge id="o45" from="n45" to="n25" priority="1" numLanes="3" speed="13.89"/>

</edges>