<configuration xmlns:xsi="http://www.w3.org/2001/XMLSchema-instance" xsi:noNamespaceSchemaLocation="http://sumo.dlr.de/xsd/duarouterConfiguration.xsd">

    <input>
        <net-file value="/Users/lsjnancy/Desktop/Summer2019/5_SUMO_UI_Design/UI_designV2.net.xml"/>
        <route-files value="/Users/lsjnancy/Desktop/Summer2019/5_SUMO_UI_Design/route_generation/route_generation_test/test.rou.xml"/>
    </input>

	<output>
        <full-output value="/Users/lsjnancy/Desktop/Summer2019/5_SUMO_UI_Design/route_generation/route_generation_test/test_output.xml"/>
    </output>

    <time>
        <begin value="0"/>
        <end value="300.0"/>
    </time>
</configuration>

        <!--<additional-files value="Users/lsjnancy/Desktop/Summer2019/7_miscellaneous/2019-06-12/.add.xml"/>-->
