<?xml version="1.0" encoding="UTF-8"?>

<!-- generated on Mon May 27 16:35:51 2019 by SUMO netconvert Version 0.32.0
<?xml version="1.0" encoding="UTF-8"?>

<configuration xmlns:xsi="http://www.w3.org/2001/XMLSchema-instance" xsi:noNamespaceSchemaLocation="http://sumo.dlr.de/xsd/netconvertConfiguration.xsd">

    <input>
        <node-files value="UI_designV2.nod.xml"/>
        <edge-files value="UI_designV2.edg.xml"/>
    </input>

    <output>
        <output-file value="UI_designV2.net.xml"/>
    </output>

</configuration>
-->

<net version="0.27" xmlns:xsi="http://www.w3.org/2001/XMLSchema-instance" xsi:noNamespaceSchemaLocation="http://sumo.dlr.de/xsd/net_file.xsd">

    <location netOffset="250.00,250.00" convBoundary="0.00,0.00,1500.00,1500.00" origBoundary="-250.00,-250.00,1250.00,1250.00" projParameter="!"/>

    <edge id=":n1_0" function="internal">
        <lane id=":n1_0_0" index="0" speed="13.89" length="5.00" shape="241.75,1261.35 241.56,1259.99 240.97,1259.03 240.01,1258.44 238.65,1258.25"/>
    </edge>
    <edge id=":n1_1" function="internal">
        <lane id=":n1_1_0" index="0" speed="13.89" length="22.70" shape="241.75,1261.35 241.75,1238.65"/>
        <lane id=":n1_1_1" index="1" speed="13.89" length="22.70" shape="245.05,1261.35 245.05,1238.65"/>
        <lane id=":n1_1_2" index="2" speed="13.89" length="22.70" shape="248.35,1261.35 248.35,1238.65"/>
    </edge>
    <edge id=":n1_4" function="internal">
        <lane id=":n1_4_0" index="0" speed="13.89" length="7.47" shape="248.35,1261.35 249.16,1255.66 250.05,1254.18"/>
    </edge>
    <edge id=":n1_5" function="internal">
        <lane id=":n1_5_0" index="0" speed="13.89" length="2.41" shape="248.35,1261.35 249.18,1260.11 250.00,1259.70"/>
    </edge>
    <edge id=":n1_24" function="internal">
        <lane id=":n1_24_0" index="0" speed="13.89" length="13.50" shape="250.05,1254.18 251.60,1251.60 255.66,1249.16 261.35,1248.35"/>
    </edge>
    <edge id=":n1_25" function="internal">
        <lane id=":n1_25_0" index="0" speed="13.89" length="2.41" shape="250.00,1259.70 250.82,1260.11 251.65,1261.35"/>
    </edge>
    <edge id=":n1_6" function="internal">
        <lane id=":n1_6_0" index="0" speed="13.89" length="5.00" shape="261.35,1258.25 259.99,1258.44 259.02,1259.03 258.44,1259.99 258.25,1261.35"/>
    </edge>
    <edge id=":n1_7" function="internal">
        <lane id=":n1_7_0" index="0" speed="13.89" length="22.70" shape="261.35,1258.25 238.65,1258.25"/>
        <lane id=":n1_7_1" index="1" speed="13.89" length="22.70" shape="261.35,1254.95 238.65,1254.95"/>
        <lane id=":n1_7_2" index="2" speed="13.89" length="22.70" shape="261.35,1251.65 238.65,1251.65"/>
    </edge>
    <edge id=":n1_10" function="internal">
        <lane id=":n1_10_0" index="0" speed="13.89" length="7.47" shape="261.35,1251.65 255.66,1250.84 254.18,1249.95"/>
    </edge>
    <edge id=":n1_11" function="internal">
        <lane id=":n1_11_0" index="0" speed="13.89" length="2.41" shape="261.35,1251.65 260.11,1250.82 259.70,1250.00"/>
    </edge>
    <edge id=":n1_26" function="internal">
        <lane id=":n1_26_0" index="0" speed="13.89" length="13.50" shape="254.18,1249.95 251.60,1248.40 249.16,1244.34 248.35,1238.65"/>
    </edge>
    <edge id=":n1_27" function="internal">
        <lane id=":n1_27_0" index="0" speed="13.89" length="2.41" shape="259.70,1250.00 260.11,1249.17 261.35,1248.35"/>
    </edge>
    <edge id=":n1_12" function="internal">
        <lane id=":n1_12_0" index="0" speed="13.89" length="5.00" shape="258.25,1238.65 258.44,1240.01 259.02,1240.97 259.99,1241.56 261.35,1241.75"/>
    </edge>
    <edge id=":n1_13" function="internal">
        <lane id=":n1_13_0" index="0" speed="13.89" length="22.70" shape="258.25,1238.65 258.25,1261.35"/>
        <lane id=":n1_13_1" index="1" speed="13.89" length="22.70" shape="254.95,1238.65 254.95,1261.35"/>
        <lane id=":n1_13_2" index="2" speed="13.89" length="22.70" shape="251.65,1238.65 251.65,1261.35"/>
    </edge>
    <edge id=":n1_16" function="internal">
        <lane id=":n1_16_0" index="0" speed="13.89" length="7.47" shape="251.65,1238.65 250.84,1244.34 249.95,1245.82"/>
    </edge>
    <edge id=":n1_17" function="internal">
        <lane id=":n1_17_0" index="0" speed="13.89" length="2.41" shape="251.65,1238.65 250.82,1239.89 250.00,1240.30"/>
    </edge>
    <edge id=":n1_28" function="internal">
        <lane id=":n1_28_0" index="0" speed="13.89" length="13.50" shape="249.95,1245.82 248.40,1248.40 244.34,1250.84 238.65,1251.65"/>
    </edge>
    <edge id=":n1_29" function="internal">
        <lane id=":n1_29_0" index="0" speed="13.89" length="2.41" shape="250.00,1240.30 249.18,1239.89 248.35,1238.65"/>
    </edge>
    <edge id=":n1_18" function="internal">
        <lane id=":n1_18_0" index="0" speed="13.89" length="5.00" shape="238.65,1241.75 240.01,1241.56 240.97,1240.97 241.56,1240.01 241.75,1238.65"/>
    </edge>
    <edge id=":n1_19" function="internal">
        <lane id=":n1_19_0" index="0" speed="13.89" length="22.70" shape="238.65,1241.75 261.35,1241.75"/>
        <lane id=":n1_19_1" index="1" speed="13.89" length="22.70" shape="238.65,1245.05 261.35,1245.05"/>
        <lane id=":n1_19_2" index="2" speed="13.89" length="22.70" shape="238.65,1248.35 261.35,1248.35"/>
    </edge>
    <edge id=":n1_22" function="internal">
        <lane id=":n1_22_0" index="0" speed="13.89" length="7.47" shape="238.65,1248.35 244.34,1249.16 245.82,1250.05"/>
    </edge>
    <edge id=":n1_23" function="internal">
        <lane id=":n1_23_0" index="0" speed="13.89" length="2.41" shape="238.65,1248.35 239.89,1249.18 240.30,1250.00"/>
    </edge>
    <edge id=":n1_30" function="internal">
        <lane id=":n1_30_0" index="0" speed="13.89" length="13.50" shape="245.82,1250.05 248.40,1251.60 250.84,1255.66 251.65,1261.35"/>
    </edge>
    <edge id=":n1_31" function="internal">
        <lane id=":n1_31_0" index="0" speed="13.89" length="2.41" shape="240.30,1250.00 239.89,1250.83 238.65,1251.65"/>
    </edge>
    <edge id=":n10_0" function="internal">
        <lane id=":n10_0_0" index="0" speed="13.89" length="5.00" shape="1241.75,1011.35 1241.56,1009.99 1240.97,1009.02 1240.01,1008.44 1238.65,1008.25"/>
    </edge>
    <edge id=":n10_1" function="internal">
        <lane id=":n10_1_0" index="0" speed="13.89" length="22.70" shape="1241.75,1011.35 1241.75,988.65"/>
        <lane id=":n10_1_1" index="1" speed="13.89" length="22.70" shape="1245.05,1011.35 1245.05,988.65"/>
        <lane id=":n10_1_2" index="2" speed="13.89" length="22.70" shape="1248.35,1011.35 1248.35,988.65"/>
    </edge>
    <edge id=":n10_4" function="internal">
        <lane id=":n10_4_0" index="0" speed="13.89" length="7.47" shape="1248.35,1011.35 1249.16,1005.66 1250.05,1004.18"/>
    </edge>
    <edge id=":n10_5" function="internal">
        <lane id=":n10_5_0" index="0" speed="13.89" length="2.41" shape="1248.35,1011.35 1249.18,1010.11 1250.00,1009.70"/>
    </edge>
    <edge id=":n10_24" function="internal">
        <lane id=":n10_24_0" index="0" speed="13.89" length="13.50" shape="1250.05,1004.18 1251.60,1001.60 1255.66,999.16 1261.35,998.35"/>
    </edge>
    <edge id=":n10_25" function="internal">
        <lane id=":n10_25_0" index="0" speed="13.89" length="2.41" shape="1250.00,1009.70 1250.83,1010.11 1251.65,1011.35"/>
    </edge>
    <edge id=":n10_6" function="internal">
        <lane id=":n10_6_0" index="0" speed="13.89" length="5.00" shape="1261.35,1008.25 1259.99,1008.44 1259.03,1009.02 1258.44,1009.99 1258.25,1011.35"/>
    </edge>
    <edge id=":n10_7" function="internal">
        <lane id=":n10_7_0" index="0" speed="13.89" length="22.70" shape="1261.35,1008.25 1238.65,1008.25"/>
        <lane id=":n10_7_1" index="1" speed="13.89" length="22.70" shape="1261.35,1004.95 1238.65,1004.95"/>
        <lane id=":n10_7_2" index="2" speed="13.89" length="22.70" shape="1261.35,1001.65 1238.65,1001.65"/>
    </edge>
    <edge id=":n10_10" function="internal">
        <lane id=":n10_10_0" index="0" speed="13.89" length="7.47" shape="1261.35,1001.65 1255.66,1000.84 1254.18,999.95"/>
    </edge>
    <edge id=":n10_11" function="internal">
        <lane id=":n10_11_0" index="0" speed="13.89" length="2.41" shape="1261.35,1001.65 1260.11,1000.83 1259.70,1000.00"/>
    </edge>
    <edge id=":n10_26" function="internal">
        <lane id=":n10_26_0" index="0" speed="13.89" length="13.50" shape="1254.18,999.95 1251.60,998.40 1249.16,994.34 1248.35,988.65"/>
    </edge>
    <edge id=":n10_27" function="internal">
        <lane id=":n10_27_0" index="0" speed="13.89" length="2.41" shape="1259.70,1000.00 1260.11,999.17 1261.35,998.35"/>
    </edge>
    <edge id=":n10_12" function="internal">
        <lane id=":n10_12_0" index="0" speed="13.89" length="5.00" shape="1258.25,988.65 1258.44,990.01 1259.03,990.98 1259.99,991.56 1261.35,991.75"/>
    </edge>
    <edge id=":n10_13" function="internal">
        <lane id=":n10_13_0" index="0" speed="13.89" length="22.70" shape="1258.25,988.65 1258.25,1011.35"/>
        <lane id=":n10_13_1" index="1" speed="13.89" length="22.70" shape="1254.95,988.65 1254.95,1011.35"/>
        <lane id=":n10_13_2" index="2" speed="13.89" length="22.70" shape="1251.65,988.65 1251.65,1011.35"/>
    </edge>
    <edge id=":n10_16" function="internal">
        <lane id=":n10_16_0" index="0" speed="13.89" length="7.47" shape="1251.65,988.65 1250.84,994.34 1249.95,995.82"/>
    </edge>
    <edge id=":n10_17" function="internal">
        <lane id=":n10_17_0" index="0" speed="13.89" length="2.41" shape="1251.65,988.65 1250.82,989.89 1250.00,990.30"/>
    </edge>
    <edge id=":n10_28" function="internal">
        <lane id=":n10_28_0" index="0" speed="13.89" length="13.50" shape="1249.95,995.82 1248.40,998.40 1244.34,1000.84 1238.65,1001.65"/>
    </edge>
    <edge id=":n10_29" function="internal">
        <lane id=":n10_29_0" index="0" speed="13.89" length="2.41" shape="1250.00,990.30 1249.17,989.89 1248.35,988.65"/>
    </edge>
    <edge id=":n10_18" function="internal">
        <lane id=":n10_18_0" index="0" speed="13.89" length="5.00" shape="1238.65,991.75 1240.01,991.56 1240.97,990.98 1241.56,990.01 1241.75,988.65"/>
    </edge>
    <edge id=":n10_19" function="internal">
        <lane id=":n10_19_0" index="0" speed="13.89" length="22.70" shape="1238.65,991.75 1261.35,991.75"/>
        <lane id=":n10_19_1" index="1" speed="13.89" length="22.70" shape="1238.65,995.05 1261.35,995.05"/>
        <lane id=":n10_19_2" index="2" speed="13.89" length="22.70" shape="1238.65,998.35 1261.35,998.35"/>
    </edge>
    <edge id=":n10_22" function="internal">
        <lane id=":n10_22_0" index="0" speed="13.89" length="7.47" shape="1238.65,998.35 1244.34,999.16 1245.82,1000.05"/>
    </edge>
    <edge id=":n10_23" function="internal">
        <lane id=":n10_23_0" index="0" speed="13.89" length="2.41" shape="1238.65,998.35 1239.89,999.17 1240.30,1000.00"/>
    </edge>
    <edge id=":n10_30" function="internal">
        <lane id=":n10_30_0" index="0" speed="13.89" length="13.50" shape="1245.82,1000.05 1248.40,1001.60 1250.84,1005.66 1251.65,1011.35"/>
    </edge>
    <edge id=":n10_31" function="internal">
        <lane id=":n10_31_0" index="0" speed="13.89" length="2.41" shape="1240.30,1000.00 1239.89,1000.83 1238.65,1001.65"/>
    </edge>
    <edge id=":n11_0" function="internal">
        <lane id=":n11_0_0" index="0" speed="13.89" length="5.00" shape="241.75,761.35 241.56,759.99 240.97,759.02 240.01,758.44 238.65,758.25"/>
    </edge>
    <edge id=":n11_1" function="internal">
        <lane id=":n11_1_0" index="0" speed="13.89" length="22.70" shape="241.75,761.35 241.75,738.65"/>
        <lane id=":n11_1_1" index="1" speed="13.89" length="22.70" shape="245.05,761.35 245.05,738.65"/>
        <lane id=":n11_1_2" index="2" speed="13.89" length="22.70" shape="248.35,761.35 248.35,738.65"/>
    </edge>
    <edge id=":n11_4" function="internal">
        <lane id=":n11_4_0" index="0" speed="13.89" length="7.47" shape="248.35,761.35 249.16,755.66 250.05,754.18"/>
    </edge>
    <edge id=":n11_5" function="internal">
        <lane id=":n11_5_0" index="0" speed="13.89" length="2.41" shape="248.35,761.35 249.18,760.11 250.00,759.70"/>
    </edge>
    <edge id=":n11_24" function="internal">
        <lane id=":n11_24_0" index="0" speed="13.89" length="13.50" shape="250.05,754.18 251.60,751.60 255.66,749.16 261.35,748.35"/>
    </edge>
    <edge id=":n11_25" function="internal">
        <lane id=":n11_25_0" index="0" speed="13.89" length="2.41" shape="250.00,759.70 250.82,760.11 251.65,761.35"/>
    </edge>
    <edge id=":n11_6" function="internal">
        <lane id=":n11_6_0" index="0" speed="13.89" length="5.00" shape="261.35,758.25 259.99,758.44 259.02,759.02 258.44,759.99 258.25,761.35"/>
    </edge>
    <edge id=":n11_7" function="internal">
        <lane id=":n11_7_0" index="0" speed="13.89" length="22.70" shape="261.35,758.25 238.65,758.25"/>
        <lane id=":n11_7_1" index="1" speed="13.89" length="22.70" shape="261.35,754.95 238.65,754.95"/>
        <lane id=":n11_7_2" index="2" speed="13.89" length="22.70" shape="261.35,751.65 238.65,751.65"/>
    </edge>
    <edge id=":n11_10" function="internal">
        <lane id=":n11_10_0" index="0" speed="13.89" length="7.47" shape="261.35,751.65 255.66,750.84 254.18,749.95"/>
    </edge>
    <edge id=":n11_11" function="internal">
        <lane id=":n11_11_0" index="0" speed="13.89" length="2.41" shape="261.35,751.65 260.11,750.82 259.70,750.00"/>
    </edge>
    <edge id=":n11_26" function="internal">
        <lane id=":n11_26_0" index="0" speed="13.89" length="13.50" shape="254.18,749.95 251.60,748.40 249.16,744.34 248.35,738.65"/>
    </edge>
    <edge id=":n11_27" function="internal">
        <lane id=":n11_27_0" index="0" speed="13.89" length="2.41" shape="259.70,750.00 260.11,749.17 261.35,748.35"/>
    </edge>
    <edge id=":n11_12" function="internal">
        <lane id=":n11_12_0" index="0" speed="13.89" length="5.00" shape="258.25,738.65 258.44,740.01 259.02,740.98 259.99,741.56 261.35,741.75"/>
    </edge>
    <edge id=":n11_13" function="internal">
        <lane id=":n11_13_0" index="0" speed="13.89" length="22.70" shape="258.25,738.65 258.25,761.35"/>
        <lane id=":n11_13_1" index="1" speed="13.89" length="22.70" shape="254.95,738.65 254.95,761.35"/>
        <lane id=":n11_13_2" index="2" speed="13.89" length="22.70" shape="251.65,738.65 251.65,761.35"/>
    </edge>
    <edge id=":n11_16" function="internal">
        <lane id=":n11_16_0" index="0" speed="13.89" length="7.47" shape="251.65,738.65 250.84,744.34 249.95,745.82"/>
    </edge>
    <edge id=":n11_17" function="internal">
        <lane id=":n11_17_0" index="0" speed="13.89" length="2.41" shape="251.65,738.65 250.82,739.89 250.00,740.30"/>
    </edge>
    <edge id=":n11_28" function="internal">
        <lane id=":n11_28_0" index="0" speed="13.89" length="13.50" shape="249.95,745.82 248.40,748.40 244.34,750.84 238.65,751.65"/>
    </edge>
    <edge id=":n11_29" function="internal">
        <lane id=":n11_29_0" index="0" speed="13.89" length="2.41" shape="250.00,740.30 249.18,739.89 248.35,738.65"/>
    </edge>
    <edge id=":n11_18" function="internal">
        <lane id=":n11_18_0" index="0" speed="13.89" length="5.00" shape="238.65,741.75 240.01,741.56 240.97,740.98 241.56,740.01 241.75,738.65"/>
    </edge>
    <edge id=":n11_19" function="internal">
        <lane id=":n11_19_0" index="0" speed="13.89" length="22.70" shape="238.65,741.75 261.35,741.75"/>
        <lane id=":n11_19_1" index="1" speed="13.89" length="22.70" shape="238.65,745.05 261.35,745.05"/>
        <lane id=":n11_19_2" index="2" speed="13.89" length="22.70" shape="238.65,748.35 261.35,748.35"/>
    </edge>
    <edge id=":n11_22" function="internal">
        <lane id=":n11_22_0" index="0" speed="13.89" length="7.47" shape="238.65,748.35 244.34,749.16 245.82,750.05"/>
    </edge>
    <edge id=":n11_23" function="internal">
        <lane id=":n11_23_0" index="0" speed="13.89" length="2.41" shape="238.65,748.35 239.89,749.18 240.30,750.00"/>
    </edge>
    <edge id=":n11_30" function="internal">
        <lane id=":n11_30_0" index="0" speed="13.89" length="13.50" shape="245.82,750.05 248.40,751.60 250.84,755.66 251.65,761.35"/>
    </edge>
    <edge id=":n11_31" function="internal">
        <lane id=":n11_31_0" index="0" speed="13.89" length="2.41" shape="240.30,750.00 239.89,750.83 238.65,751.65"/>
    </edge>
    <edge id=":n12_0" function="internal">
        <lane id=":n12_0_0" index="0" speed="13.89" length="5.00" shape="491.75,761.35 491.56,759.99 490.98,759.02 490.01,758.44 488.65,758.25"/>
    </edge>
    <edge id=":n12_1" function="internal">
        <lane id=":n12_1_0" index="0" speed="13.89" length="22.70" shape="491.75,761.35 491.75,738.65"/>
        <lane id=":n12_1_1" index="1" speed="13.89" length="22.70" shape="495.05,761.35 495.05,738.65"/>
        <lane id=":n12_1_2" index="2" speed="13.89" length="22.70" shape="498.35,761.35 498.35,738.65"/>
    </edge>
    <edge id=":n12_4" function="internal">
        <lane id=":n12_4_0" index="0" speed="13.89" length="7.47" shape="498.35,761.35 499.16,755.66 500.05,754.18"/>
    </edge>
    <edge id=":n12_5" function="internal">
        <lane id=":n12_5_0" index="0" speed="13.89" length="2.41" shape="498.35,761.35 499.18,760.11 500.00,759.70"/>
    </edge>
    <edge id=":n12_24" function="internal">
        <lane id=":n12_24_0" index="0" speed="13.89" length="13.50" shape="500.05,754.18 501.60,751.60 505.66,749.16 511.35,748.35"/>
    </edge>
    <edge id=":n12_25" function="internal">
        <lane id=":n12_25_0" index="0" speed="13.89" length="2.41" shape="500.00,759.70 500.82,760.11 501.65,761.35"/>
    </edge>
    <edge id=":n12_6" function="internal">
        <lane id=":n12_6_0" index="0" speed="13.89" length="5.00" shape="511.35,758.25 509.99,758.44 509.02,759.02 508.44,759.99 508.25,761.35"/>
    </edge>
    <edge id=":n12_7" function="internal">
        <lane id=":n12_7_0" index="0" speed="13.89" length="22.70" shape="511.35,758.25 488.65,758.25"/>
        <lane id=":n12_7_1" index="1" speed="13.89" length="22.70" shape="511.35,754.95 488.65,754.95"/>
        <lane id=":n12_7_2" index="2" speed="13.89" length="22.70" shape="511.35,751.65 488.65,751.65"/>
    </edge>
    <edge id=":n12_10" function="internal">
        <lane id=":n12_10_0" index="0" speed="13.89" length="7.47" shape="511.35,751.65 505.66,750.84 504.18,749.95"/>
    </edge>
    <edge id=":n12_11" function="internal">
        <lane id=":n12_11_0" index="0" speed="13.89" length="2.41" shape="511.35,751.65 510.11,750.82 509.70,750.00"/>
    </edge>
    <edge id=":n12_26" function="internal">
        <lane id=":n12_26_0" index="0" speed="13.89" length="13.50" shape="504.18,749.95 501.60,748.40 499.16,744.34 498.35,738.65"/>
    </edge>
    <edge id=":n12_27" function="internal">
        <lane id=":n12_27_0" index="0" speed="13.89" length="2.41" shape="509.70,750.00 510.11,749.17 511.35,748.35"/>
    </edge>
    <edge id=":n12_12" function="internal">
        <lane id=":n12_12_0" index="0" speed="13.89" length="5.00" shape="508.25,738.65 508.44,740.01 509.02,740.98 509.99,741.56 511.35,741.75"/>
    </edge>
    <edge id=":n12_13" function="internal">
        <lane id=":n12_13_0" index="0" speed="13.89" length="22.70" shape="508.25,738.65 508.25,761.35"/>
        <lane id=":n12_13_1" index="1" speed="13.89" length="22.70" shape="504.95,738.65 504.95,761.35"/>
        <lane id=":n12_13_2" index="2" speed="13.89" length="22.70" shape="501.65,738.65 501.65,761.35"/>
    </edge>
    <edge id=":n12_16" function="internal">
        <lane id=":n12_16_0" index="0" speed="13.89" length="7.47" shape="501.65,738.65 500.84,744.34 499.95,745.82"/>
    </edge>
    <edge id=":n12_17" function="internal">
        <lane id=":n12_17_0" index="0" speed="13.89" length="2.41" shape="501.65,738.65 500.82,739.89 500.00,740.30"/>
    </edge>
    <edge id=":n12_28" function="internal">
        <lane id=":n12_28_0" index="0" speed="13.89" length="13.50" shape="499.95,745.82 498.40,748.40 494.34,750.84 488.65,751.65"/>
    </edge>
    <edge id=":n12_29" function="internal">
        <lane id=":n12_29_0" index="0" speed="13.89" length="2.41" shape="500.00,740.30 499.18,739.89 498.35,738.65"/>
    </edge>
    <edge id=":n12_18" function="internal">
        <lane id=":n12_18_0" index="0" speed="13.89" length="5.00" shape="488.65,741.75 490.01,741.56 490.98,740.98 491.56,740.01 491.75,738.65"/>
    </edge>
    <edge id=":n12_19" function="internal">
        <lane id=":n12_19_0" index="0" speed="13.89" length="22.70" shape="488.65,741.75 511.35,741.75"/>
        <lane id=":n12_19_1" index="1" speed="13.89" length="22.70" shape="488.65,745.05 511.35,745.05"/>
        <lane id=":n12_19_2" index="2" speed="13.89" length="22.70" shape="488.65,748.35 511.35,748.35"/>
    </edge>
    <edge id=":n12_22" function="internal">
        <lane id=":n12_22_0" index="0" speed="13.89" length="7.47" shape="488.65,748.35 494.34,749.16 495.82,750.05"/>
    </edge>
    <edge id=":n12_23" function="internal">
        <lane id=":n12_23_0" index="0" speed="13.89" length="2.41" shape="488.65,748.35 489.89,749.18 490.30,750.00"/>
    </edge>
    <edge id=":n12_30" function="internal">
        <lane id=":n12_30_0" index="0" speed="13.89" length="13.50" shape="495.82,750.05 498.40,751.60 500.84,755.66 501.65,761.35"/>
    </edge>
    <edge id=":n12_31" function="internal">
        <lane id=":n12_31_0" index="0" speed="13.89" length="2.41" shape="490.30,750.00 489.89,750.83 488.65,751.65"/>
    </edge>
    <edge id=":n13_0" function="internal">
        <lane id=":n13_0_0" index="0" speed="13.89" length="5.00" shape="741.75,761.35 741.56,759.99 740.98,759.02 740.01,758.44 738.65,758.25"/>
    </edge>
    <edge id=":n13_1" function="internal">
        <lane id=":n13_1_0" index="0" speed="13.89" length="22.70" shape="741.75,761.35 741.75,738.65"/>
        <lane id=":n13_1_1" index="1" speed="13.89" length="22.70" shape="745.05,761.35 745.05,738.65"/>
        <lane id=":n13_1_2" index="2" speed="13.89" length="22.70" shape="748.35,761.35 748.35,738.65"/>
    </edge>
    <edge id=":n13_4" function="internal">
        <lane id=":n13_4_0" index="0" speed="13.89" length="7.47" shape="748.35,761.35 749.16,755.66 750.05,754.18"/>
    </edge>
    <edge id=":n13_5" function="internal">
        <lane id=":n13_5_0" index="0" speed="13.89" length="2.41" shape="748.35,761.35 749.18,760.11 750.00,759.70"/>
    </edge>
    <edge id=":n13_24" function="internal">
        <lane id=":n13_24_0" index="0" speed="13.89" length="13.50" shape="750.05,754.18 751.60,751.60 755.66,749.16 761.35,748.35"/>
    </edge>
    <edge id=":n13_25" function="internal">
        <lane id=":n13_25_0" index="0" speed="13.89" length="2.41" shape="750.00,759.70 750.83,760.11 751.65,761.35"/>
    </edge>
    <edge id=":n13_6" function="internal">
        <lane id=":n13_6_0" index="0" speed="13.89" length="5.00" shape="761.35,758.25 759.99,758.44 759.02,759.02 758.44,759.99 758.25,761.35"/>
    </edge>
    <edge id=":n13_7" function="internal">
        <lane id=":n13_7_0" index="0" speed="13.89" length="22.70" shape="761.35,758.25 738.65,758.25"/>
        <lane id=":n13_7_1" index="1" speed="13.89" length="22.70" shape="761.35,754.95 738.65,754.95"/>
        <lane id=":n13_7_2" index="2" speed="13.89" length="22.70" shape="761.35,751.65 738.65,751.65"/>
    </edge>
    <edge id=":n13_10" function="internal">
        <lane id=":n13_10_0" index="0" speed="13.89" length="7.47" shape="761.35,751.65 755.66,750.84 754.18,749.95"/>
    </edge>
    <edge id=":n13_11" function="internal">
        <lane id=":n13_11_0" index="0" speed="13.89" length="2.41" shape="761.35,751.65 760.11,750.82 759.70,750.00"/>
    </edge>
    <edge id=":n13_26" function="internal">
        <lane id=":n13_26_0" index="0" speed="13.89" length="13.50" shape="754.18,749.95 751.60,748.40 749.16,744.34 748.35,738.65"/>
    </edge>
    <edge id=":n13_27" function="internal">
        <lane id=":n13_27_0" index="0" speed="13.89" length="2.41" shape="759.70,750.00 760.11,749.17 761.35,748.35"/>
    </edge>
    <edge id=":n13_12" function="internal">
        <lane id=":n13_12_0" index="0" speed="13.89" length="5.00" shape="758.25,738.65 758.44,740.01 759.02,740.98 759.99,741.56 761.35,741.75"/>
    </edge>
    <edge id=":n13_13" function="internal">
        <lane id=":n13_13_0" index="0" speed="13.89" length="22.70" shape="758.25,738.65 758.25,761.35"/>
        <lane id=":n13_13_1" index="1" speed="13.89" length="22.70" shape="754.95,738.65 754.95,761.35"/>
        <lane id=":n13_13_2" index="2" speed="13.89" length="22.70" shape="751.65,738.65 751.65,761.35"/>
    </edge>
    <edge id=":n13_16" function="internal">
        <lane id=":n13_16_0" index="0" speed="13.89" length="7.47" shape="751.65,738.65 750.84,744.34 749.95,745.82"/>
    </edge>
    <edge id=":n13_17" function="internal">
        <lane id=":n13_17_0" index="0" speed="13.89" length="2.41" shape="751.65,738.65 750.82,739.89 750.00,740.30"/>
    </edge>
    <edge id=":n13_28" function="internal">
        <lane id=":n13_28_0" index="0" speed="13.89" length="13.50" shape="749.95,745.82 748.40,748.40 744.34,750.84 738.65,751.65"/>
    </edge>
    <edge id=":n13_29" function="internal">
        <lane id=":n13_29_0" index="0" speed="13.89" length="2.41" shape="750.00,740.30 749.17,739.89 748.35,738.65"/>
    </edge>
    <edge id=":n13_18" function="internal">
        <lane id=":n13_18_0" index="0" speed="13.89" length="5.00" shape="738.65,741.75 740.01,741.56 740.98,740.98 741.56,740.01 741.75,738.65"/>
    </edge>
    <edge id=":n13_19" function="internal">
        <lane id=":n13_19_0" index="0" speed="13.89" length="22.70" shape="738.65,741.75 761.35,741.75"/>
        <lane id=":n13_19_1" index="1" speed="13.89" length="22.70" shape="738.65,745.05 761.35,745.05"/>
        <lane id=":n13_19_2" index="2" speed="13.89" length="22.70" shape="738.65,748.35 761.35,748.35"/>
    </edge>
    <edge id=":n13_22" function="internal">
        <lane id=":n13_22_0" index="0" speed="13.89" length="7.47" shape="738.65,748.35 744.34,749.16 745.82,750.05"/>
    </edge>
    <edge id=":n13_23" function="internal">
        <lane id=":n13_23_0" index="0" speed="13.89" length="2.41" shape="738.65,748.35 739.89,749.18 740.30,750.00"/>
    </edge>
    <edge id=":n13_30" function="internal">
        <lane id=":n13_30_0" index="0" speed="13.89" length="13.50" shape="745.82,750.05 748.40,751.60 750.84,755.66 751.65,761.35"/>
    </edge>
    <edge id=":n13_31" function="internal">
        <lane id=":n13_31_0" index="0" speed="13.89" length="2.41" shape="740.30,750.00 739.89,750.83 738.65,751.65"/>
    </edge>
    <edge id=":n14_0" function="internal">
        <lane id=":n14_0_0" index="0" speed="13.89" length="5.00" shape="991.75,761.35 991.56,759.99 990.98,759.02 990.01,758.44 988.65,758.25"/>
    </edge>
    <edge id=":n14_1" function="internal">
        <lane id=":n14_1_0" index="0" speed="13.89" length="22.70" shape="991.75,761.35 991.75,738.65"/>
        <lane id=":n14_1_1" index="1" speed="13.89" length="22.70" shape="995.05,761.35 995.05,738.65"/>
        <lane id=":n14_1_2" index="2" speed="13.89" length="22.70" shape="998.35,761.35 998.35,738.65"/>
    </edge>
    <edge id=":n14_4" function="internal">
        <lane id=":n14_4_0" index="0" speed="13.89" length="7.47" shape="998.35,761.35 999.16,755.66 1000.05,754.18"/>
    </edge>
    <edge id=":n14_5" function="internal">
        <lane id=":n14_5_0" index="0" speed="13.89" length="2.41" shape="998.35,761.35 999.17,760.11 1000.00,759.70"/>
    </edge>
    <edge id=":n14_24" function="internal">
        <lane id=":n14_24_0" index="0" speed="13.89" length="13.50" shape="1000.05,754.18 1001.60,751.60 1005.66,749.16 1011.35,748.35"/>
    </edge>
    <edge id=":n14_25" function="internal">
        <lane id=":n14_25_0" index="0" speed="13.89" length="2.41" shape="1000.00,759.70 1000.83,760.11 1001.65,761.35"/>
    </edge>
    <edge id=":n14_6" function="internal">
        <lane id=":n14_6_0" index="0" speed="13.89" length="5.00" shape="1011.35,758.25 1009.99,758.44 1009.02,759.02 1008.44,759.99 1008.25,761.35"/>
    </edge>
    <edge id=":n14_7" function="internal">
        <lane id=":n14_7_0" index="0" speed="13.89" length="22.70" shape="1011.35,758.25 988.65,758.25"/>
        <lane id=":n14_7_1" index="1" speed="13.89" length="22.70" shape="1011.35,754.95 988.65,754.95"/>
        <lane id=":n14_7_2" index="2" speed="13.89" length="22.70" shape="1011.35,751.65 988.65,751.65"/>
    </edge>
    <edge id=":n14_10" function="internal">
        <lane id=":n14_10_0" index="0" speed="13.89" length="7.47" shape="1011.35,751.65 1005.66,750.84 1004.18,749.95"/>
    </edge>
    <edge id=":n14_11" function="internal">
        <lane id=":n14_11_0" index="0" speed="13.89" length="2.41" shape="1011.35,751.65 1010.11,750.82 1009.70,750.00"/>
    </edge>
    <edge id=":n14_26" function="internal">
        <lane id=":n14_26_0" index="0" speed="13.89" length="13.50" shape="1004.18,749.95 1001.60,748.40 999.16,744.34 998.35,738.65"/>
    </edge>
    <edge id=":n14_27" function="internal">
        <lane id=":n14_27_0" index="0" speed="13.89" length="2.41" shape="1009.70,750.00 1010.11,749.17 1011.35,748.35"/>
    </edge>
    <edge id=":n14_12" function="internal">
        <lane id=":n14_12_0" index="0" speed="13.89" length="5.00" shape="1008.25,738.65 1008.44,740.01 1009.02,740.98 1009.99,741.56 1011.35,741.75"/>
    </edge>
    <edge id=":n14_13" function="internal">
        <lane id=":n14_13_0" index="0" speed="13.89" length="22.70" shape="1008.25,738.65 1008.25,761.35"/>
        <lane id=":n14_13_1" index="1" speed="13.89" length="22.70" shape="1004.95,738.65 1004.95,761.35"/>
        <lane id=":n14_13_2" index="2" speed="13.89" length="22.70" shape="1001.65,738.65 1001.65,761.35"/>
    </edge>