<?xml version="1.0" encoding="UTF-8"?>

<!-- generated on Mon Jun 10 23:13:14 2019 by Eclipse SUMO netconvert Version 1.2.0
<configuration xmlns:xsi="http://www.w3.org/2001/XMLSchema-instance" xsi:noNamespaceSchemaLocation="http://sumo.dlr.de/xsd/netconvertConfiguration.xsd">

    <input>
        <node-files value="UI_designV3.nod.xml"/>
        <edge-files value="UI_designV2.edg.xml"/>
        <connection-files value="UI_design.con.xml"/>
    </input>

    <output>
        <output-file value="UI_designV3.net.xml"/>
    </output>

</configuration>
-->

<net version="1.1" junctionCornerDetail="5" limitTurnSpeed="5.50" xmlns:xsi="http://www.w3.org/2001/XMLSchema-instance" xsi:noNamespaceSchemaLocation="http://sumo.dlr.de/xsd/net_file.xsd">

    <location netOffset="250.00,250.00" convBoundary="0.00,0.00,1500.00,1500.00" origBoundary="-250.00,-250.00,1250.00,1250.00" projParameter="!"/>

    <edge id=":n1_0" function="internal">
        <lane id=":n1_0_0" index="0" speed="6.51" length="9.03" shape="242.00,1263.60 241.65,1261.15 240.60,1259.40 238.85,1258.35 236.40,1258.00"/>
    </edge>
    <edge id=":n1_1" function="internal">
        <lane id=":n1_1_0" index="0" speed="13.89" length="27.20" shape="245.20,1263.60 245.20,1236.40"/>
    </edge>
    <edge id=":n1_2" function="internal">
        <lane id=":n1_2_0" index="0" speed="10.36" length="13.42" shape="248.40,1263.60 249.35,1256.95 252.20,1252.20 253.20,1251.60"/>
    </edge>
    <edge id=":n1_3" function="internal">
        <lane id=":n1_3_0" index="0" speed="5.58" length="5.27" shape="248.40,1263.60 250.80,1260.00 253.20,1258.80"/>
        <lane id=":n1_3_1" index="1" speed="4.72" length="5.27" shape="248.40,1263.60 250.00,1261.20 251.60,1260.40 253.20,1261.20"/>
        <lane id=":n1_3_2" index="2" speed="3.65" length="5.27" shape="248.40,1263.60 249.20,1262.40 250.00,1262.00"/>
    </edge>
    <edge id=":n1_24" function="internal">
        <lane id=":n1_24_0" index="0" speed="10.36" length="11.09" shape="253.20,1251.60 256.95,1249.35 263.60,1248.40"/>
    </edge>
    <edge id=":n1_25" function="internal">
        <lane id=":n1_25_0" index="0" speed="5.58" length="7.01" shape="253.20,1258.80 255.60,1260.00 258.00,1263.60"/>
    </edge>
    <edge id=":n1_26" function="internal">
        <lane id=":n1_26_0" index="0" speed="4.72" length="2.88" shape="253.20,1261.20 254.80,1263.60"/>
    </edge>
    <edge id=":n1_27" function="internal">
        <lane id=":n1_27_0" index="0" speed="3.65" length="2.34" shape="250.00,1262.00 250.80,1262.40 251.60,1263.60"/>
    </edge>
    <edge id=":n1_6" function="internal">
        <lane id=":n1_6_0" index="0" speed="6.51" length="9.03" shape="263.60,1258.00 261.15,1258.35 259.40,1259.40 258.35,1261.15 258.00,1263.60"/>
    </edge>
    <edge id=":n1_7" function="internal">
        <lane id=":n1_7_0" index="0" speed="13.89" length="27.20" shape="263.60,1254.80 236.40,1254.80"/>
    </edge>
    <edge id=":n1_8" function="internal">
        <lane id=":n1_8_0" index="0" speed="10.36" length="13.42" shape="263.60,1251.60 256.95,1250.65 252.20,1247.80 251.60,1246.80"/>
    </edge>
    <edge id=":n1_9" function="internal">
        <lane id=":n1_9_0" index="0" speed="5.58" length="5.27" shape="263.60,1251.60 260.00,1249.20 258.80,1246.80"/>
        <lane id=":n1_9_1" index="1" speed="4.72" length="5.27" shape="263.60,1251.60 261.20,1250.00 260.40,1248.40 261.20,1246.80"/>
        <lane id=":n1_9_2" index="2" speed="3.65" length="5.27" shape="263.60,1251.60 262.40,1250.80 262.00,1250.00"/>
    </edge>
    <edge id=":n1_28" function="internal">
        <lane id=":n1_28_0" index="0" speed="10.36" length="11.09" shape="251.60,1246.80 249.35,1243.05 248.40,1236.40"/>
    </edge>
    <edge id=":n1_29" function="internal">
        <lane id=":n1_29_0" index="0" speed="5.58" length="7.01" shape="258.80,1246.80 260.00,1244.40 263.60,1242.00"/>
    </edge>
    <edge id=":n1_30" function="internal">
        <lane id=":n1_30_0" index="0" speed="4.72" length="2.88" shape="261.20,1246.80 263.60,1245.20"/>
    </edge>
    <edge id=":n1_31" function="internal">
        <lane id=":n1_31_0" index="0" speed="3.65" length="2.34" shape="262.00,1250.00 262.40,1249.20 263.60,1248.40"/>
    </edge>
    <edge id=":n1_12" function="internal">
        <lane id=":n1_12_0" index="0" speed="6.51" length="9.03" shape="258.00,1236.40 258.35,1238.85 259.40,1240.60 261.15,1241.65 263.60,1242.00"/>
    </edge>
    <edge id=":n1_13" function="internal">
        <lane id=":n1_13_0" index="0" speed="13.89" length="27.20" shape="254.80,1236.40 254.80,1263.60"/>
    </edge>
    <edge id=":n1_14" function="internal">
        <lane id=":n1_14_0" index="0" speed="10.36" length="13.42" shape="251.60,1236.40 250.65,1243.05 247.80,1247.80 246.80,1248.40"/>
    </edge>
    <edge id=":n1_15" function="internal">
        <lane id=":n1_15_0" index="0" speed="5.58" length="5.27" shape="251.60,1236.40 249.20,1240.00 246.80,1241.20"/>
        <lane id=":n1_15_1" index="1" speed="4.72" length="5.27" shape="251.60,1236.40 250.00,1238.80 248.40,1239.60 246.80,1238.80"/>
        <lane id=":n1_15_2" index="2" speed="3.65" length="5.27" shape="251.60,1236.40 250.80,1237.60 250.00,1238.00"/>
    </edge>
    <edge id=":n1_32" function="internal">
        <lane id=":n1_32_0" index="0" speed="10.36" length="11.09" shape="246.80,1248.40 243.05,1250.65 236.40,1251.60"/>
    </edge>
    <edge id=":n1_33" function="internal">
        <lane id=":n1_33_0" index="0" speed="5.58" length="7.01" shape="246.80,1241.20 244.40,1240.00 242.00,1236.40"/>
    </edge>
    <edge id=":n1_34" function="internal">
        <lane id=":n1_34_0" index="0" speed="4.72" length="2.88" shape="246.80,1238.80 245.20,1236.40"/>
    </edge>
    <edge id=":n1_35" function="internal">
        <lane id=":n1_35_0" index="0" speed="3.65" length="2.34" shape="250.00,1238.00 249.20,1237.60 248.40,1236.40"/>
    </edge>
    <edge id=":n1_18" function="internal">
        <lane id=":n1_18_0" index="0" speed="6.51" length="9.03" shape="236.40,1242.00 238.85,1241.65 240.60,1240.60 241.65,1238.85 242.00,1236.40"/>
    </edge>
    <edge id=":n1_19" function="internal">
        <lane id=":n1_19_0" index="0" speed="13.89" length="27.20" shape="236.40,1245.20 263.60,1245.20"/>
    </edge>
    <edge id=":n1_20" function="internal">
        <lane id=":n1_20_0" index="0" speed="10.36" length="13.42" shape="236.40,1248.40 243.05,1249.35 247.80,1252.20 248.40,1253.20"/>
    </edge>
    <edge id=":n1_21" function="internal">
        <lane id=":n1_21_0" index="0" speed="5.58" length="5.27" shape="236.40,1248.40 240.00,1250.80 241.20,1253.20"/>
        <lane id=":n1_21_1" index="1" speed="4.72" length="5.27" shape="236.40,1248.40 238.80,1250.00 239.60,1251.60 238.80,1253.20"/>
        <lane id=":n1_21_2" index="2" speed="3.65" length="5.27" shape="236.40,1248.40 237.60,1249.20 238.00,1250.00"/>
    </edge>
    <edge id=":n1_36" function="internal">
        <lane id=":n1_36_0" index="0" speed="10.36" length="11.09" shape="248.40,1253.20 250.65,1256.95 251.60,1263.60"/>
    </edge>
    <edge id=":n1_37" function="internal">
        <lane id=":n1_37_0" index="0" speed="5.58" length="7.01" shape="241.20,1253.20 240.00,1255.60 236.40,1258.00"/>
    </edge>
    <edge id=":n1_38" function="internal">
        <lane id=":n1_38_0" index="0" speed="4.72" length="2.88" shape="238.80,1253.20 236.40,1254.80"/>
    </edge>
    <edge id=":n1_39" function="internal">
        <lane id=":n1_39_0" index="0" speed="3.65" length="2.34" shape="238.00,1250.00 237.60,1250.80 236.40,1251.60"/>
    </edge>
    <edge id=":n10_0" function="internal">
        <lane id=":n10_0_0" index="0" speed="6.51" length="9.03" shape="1242.00,1013.60 1241.65,1011.15 1240.60,1009.40 1238.85,1008.35 1236.40,1008.00"/>
    </edge>
    <edge id=":n10_1" function="internal">
        <lane id=":n10_1_0" index="0" speed="13.89" length="27.20" shape="1245.20,1013.60 1245.20,986.40"/>
    </edge>
    <edge id=":n10_2" function="internal">
        <lane id=":n10_2_0" index="0" speed="10.36" length="13.42" shape="1248.40,1013.60 1249.35,1006.95 1252.20,1002.20 1253.20,1001.60"/>
    </edge>
    <edge id=":n10_3" function="internal">
        <lane id=":n10_3_0" index="0" speed="5.58" length="5.27" shape="1248.40,1013.60 1250.80,1010.00 1253.20,1008.80"/>
        <lane id=":n10_3_1" index="1" speed="4.72" length="5.27" shape="1248.40,1013.60 1250.00,1011.20 1251.60,1010.40 1253.20,1011.20"/>
        <lane id=":n10_3_2" index="2" speed="3.65" length="5.27" shape="1248.40,1013.60 1249.20,1012.40 1250.00,1012.00"/>
    </edge>
    <edge id=":n10_24" function="internal">
        <lane id=":n10_24_0" index="0" speed="10.36" length="11.09" shape="1253.20,1001.60 1256.95,999.35 1263.60,998.40"/>
    </edge>
    <edge id=":n10_25" function="internal">
        <lane id=":n10_25_0" index="0" speed="5.58" length="7.01" shape="1253.20,1008.80 1255.60,1010.00 1258.00,1013.60"/>
    </edge>
    <edge id=":n10_26" function="internal">
        <lane id=":n10_26_0" index="0" speed="4.72" length="2.88" shape="1253.20,1011.20 1254.80,1013.60"/>
    </edge>
    <edge id=":n10_27" function="internal">
        <lane id=":n10_27_0" index="0" speed="3.65" length="2.34" shape="1250.00,1012.00 1250.80,1012.40 1251.60,1013.60"/>
    </edge>
    <edge id=":n10_6" function="internal">
        <lane id=":n10_6_0" index="0" speed="6.51" length="9.03" shape="1263.60,1008.00 1261.15,1008.35 1259.40,1009.40 1258.35,1011.15 1258.00,1013.60"/>
    </edge>
    <edge id=":n10_7" function="internal">
        <lane id=":n10_7_0" index="0" speed="13.89" length="27.20" shape="1263.60,1004.80 1236.40,1004.80"/>
    </edge>
    <edge id=":n10_8" function="internal">
        <lane id=":n10_8_0" index="0" speed="10.36" length="13.42" shape="1263.60,1001.60 1256.95,1000.65 1252.20,997.80 1251.60,996.80"/>
    </edge>
    <edge id=":n10_9" function="internal">
        <lane id=":n10_9_0" index="0" speed="5.58" length="5.27" shape="1263.60,1001.60 1260.00,999.20 1258.80,996.80"/>
        <lane id=":n10_9_1" index="1" speed="4.72" length="5.27" shape="1263.60,1001.60 1261.20,1000.00 1260.40,998.40 1261.20,996.80"/>
        <lane id=":n10_9_2" index="2" speed="3.65" length="5.27" shape="1263.60,1001.60 1262.40,1000.80 1262.00,1000.00"/>
    </edge>
    <edge id=":n10_28" function="internal">
        <lane id=":n10_28_0" index="0" speed="10.36" length="11.09" shape="1251.60,996.80 1249.35,993.05 1248.40,986.40"/>
    </edge>
    <edge id=":n10_29" function="internal">
        <lane id=":n10_29_0" index="0" speed="5.58" length="7.01" shape="1258.80,996.80 1260.00,994.40 1263.60,992.00"/>
    </edge>
    <edge id=":n10_30" function="internal">
        <lane id=":n10_30_0" index="0" speed="4.72" length="2.88" shape="1261.20,996.80 1263.60,995.20"/>
    </edge>
    <edge id=":n10_31" function="internal">
        <lane id=":n10_31_0" index="0" speed="3.65" length="2.34" shape="1262.00,1000.00 1262.40,999.20 1263.60,998.40"/>
    </edge>
    <edge id=":n10_12" function="internal">
        <lane id=":n10_12_0" index="0" speed="6.51" length="9.03" shape="1258.00,986.40 1258.35,988.85 1259.40,990.60 1261.15,991.65 1263.60,992.00"/>
    </edge>
    <edge id=":n10_13" function="internal">
        <lane id=":n10_13_0" index="0" speed="13.89" length="27.20" shape="1254.80,986.40 1254.80,1013.60"/>
    </edge>
    <edge id=":n10_14" function="internal">
        <lane id=":n10_14_0" index="0" speed="10.36" length="13.42" shape="1251.60,986.40 1250.65,993.05 1247.80,997.80 1246.80,998.40"/>
    </edge>
    <edge id=":n10_15" function="internal">
        <lane id=":n10_15_0" index="0" speed="5.58" length="5.27" shape="1251.60,986.40 1249.20,990.00 1246.80,991.20"/>
        <lane id=":n10_15_1" index="1" speed="4.72" length="5.27" shape="1251.60,986.40 1250.00,988.80 1248.40,989.60 1246.80,988.80"/>
        <lane id=":n10_15_2" index="2" speed="3.65" length="5.27" shape="1251.60,986.40 1250.80,987.60 1250.00,988.00"/>
    </edge>
    <edge id=":n10_32" function="internal">
        <lane id=":n10_32_0" index="0" speed="10.36" length="11.09" shape="1246.80,998.40 1243.05,1000.65 1236.40,1001.60"/>
    </edge>
    <edge id=":n10_33" function="internal">
        <lane id=":n10_33_0" index="0" speed="5.58" length="7.01" shape="1246.80,991.20 1244.40,990.00 1242.00,986.40"/>
    </edge>
    <edge id=":n10_34" function="internal">
        <lane id=":n10_34_0" index="0" speed="4.72" length="2.88" shape="1246.80,988.80 1245.20,986.40"/>
    </edge>
    <edge id=":n10_35" function="internal">
        <lane id=":n10_35_0" index="0" speed="3.65" length="2.34" shape="1250.00,988.00 1249.20,987.60 1248.40,986.40"/>
    </edge>
    <edge id=":n10_18" function="internal">
        <lane id=":n10_18_0" index="0" speed="6.51" length="9.03" shape="1236.40,992.00 1238.85,991.65 1240.60,990.60 1241.65,988.85 1242.00,986.40"/>
    </edge>
    <edge id=":n10_19" function="internal">
        <lane id=":n10_19_0" index="0" speed="13.89" length="27.20" shape="1236.40,995.20 1263.60,995.20"/>
    </edge>
    <edge id=":n10_20" function="internal">
        <lane id=":n10_20_0" index="0" speed="10.36" length="13.42" shape="1236.40,998.40 1243.05,999.35 1247.80,1002.20 1248.40,1003.20"/>
    </edge>
    <edge id=":n10_21" function="internal">
        <lane id=":n10_21_0" index="0" speed="5.58" length="5.27" shape="1236.40,998.40 1240.00,1000.80 1241.20,1003.20"/>
        <lane id=":n10_21_1" index="1" speed="4.72" length="5.27" shape="1236.40,998.40 1238.80,1000.00 1239.60,1001.60 1238.80,1003.20"/>
        <lane id=":n10_21_2" index="2" speed="3.65" length="5.27" shape="1236.40,998.40 1237.60,999.20 1238.00,1000.00"/>
    </edge>
    <edge id=":n10_36" function="internal">
        <lane id=":n10_36_0" index="0" speed="10.36" length="11.09" shape="1248.40,1003.20 1250.65,1006.95 1251.60,1013.60"/>
    </edge>
    <edge id=":n10_37" function="internal">
        <lane id=":n10_37_0" index="0" speed="5.58" length="7.01" shape="1241.20,1003.20 1240.00,1005.60 1236.40,1008.00"/>
    </edge>
    <edge id=":n10_38" function="internal">
        <lane id=":n10_38_0" index="0" speed="4.72" length="2.88" shape="1238.80,1003.20 1236.40,1004.80"/>
    </edge>
    <edge id=":n10_39" function="internal">
        <lane id=":n10_39_0" index="0" speed="3.65" length="2.34" shape="1238.00,1000.00 1237.60,1000.80 1236.40,1001.60"/>
    </edge>
    <edge id=":n11_0" function="internal">
        <lane id=":n11_0_0" index="0" speed="6.51" length="9.03" shape="242.00,763.60 241.65,761.15 240.60,759.40 238.85,758.35 236.40,758.00"/>
    </edge>
    <edge id=":n11_1" function="internal">
        <lane id=":n11_1_0" index="0" speed="13.89" length="27.20" shape="245.20,763.60 245.20,736.40"/>
    </edge>
    <edge id=":n11_2" function="internal">
        <lane id=":n11_2_0" index="0" speed="10.36" length="13.42" shape="248.40,763.60 249.35,756.95 252.20,752.20 253.20,751.60"/>
    </edge>
    <edge id=":n11_3" function="internal">
        <lane id=":n11_3_0" index="0" speed="5.58" length="5.27" shape="248.40,763.60 250.80,760.00 253.20,758.80"/>
        <lane id=":n11_3_1" index="1" speed="4.72" length="5.27" shape="248.40,763.60 250.00,761.20 251.60,760.40 253.20,761.20"/>
        <lane id=":n11_3_2" index="2" speed="3.65" length="5.27" shape="248.40,763.60 249.20,762.40 250.00,762.00"/>
    </edge>
    <edge id=":n11_24" function="internal">
        <lane id=":n11_24_0" index="0" speed="10.36" length="11.09" shape="253.20,751.60 256.95,749.35 263.60,748.40"/>
    </edge>
    <edge id=":n11_25" function="internal">
        <lane id=":n11_25_0" index="0" speed="5.58" length="7.01" shape="253.20,758.80 255.60,760.00 258.00,763.60"/>
    </edge>
    <edge id=":n11_26" function="internal">
        <lane id=":n11_26_0" index="0" speed="4.72" length="2.88" shape="253.20,761.20 254.80,763.60"/>
    </edge>
    <edge id=":n11_27" function="internal">
        <lane id=":n11_27_0" index="0" speed="3.65" length="2.34" shape="250.00,762.00 250.80,762.40 251.60,763.60"/>
    </edge>
    <edge id=":n11_6" function="internal">
        <lane id=":n11_6_0" index="0" speed="6.51" length="9.03" shape="263.60,758.00 261.15,758.35 259.40,759.40 258.35,761.15 258.00,763.60"/>
    </edge>
    <edge id=":n11_7" function="internal">
        <lane id=":n11_7_0" index="0" speed="13.89" length="27.20" shape="263.60,754.80 236.40,754.80"/>
    </edge>
    <edge id=":n11_8" function="internal">
        <lane id=":n11_8_0" index="0" speed="10.36" length="13.42" shape="263.60,751.60 256.95,750.65 252.20,747.80 251.60,746.80"/>
    </edge>
    <edge id=":n11_9" function="internal">
        <lane id=":n11_9_0" index="0" speed="5.58" length="5.27" shape="263.60,751.60 260.00,749.20 258.80,746.80"/>
        <lane id=":n11_9_1" index="1" speed="4.72" length="5.27" shape="263.60,751.60 261.20,750.00 260.40,748.40 261.20,746.80"/>
        <lane id=":n11_9_2" index="2" speed="3.65" length="5.27" shape="263.60,751.60 262.40,750.80 262.00,750.00"/>
    </edge>
    <edge id=":n11_28" function="internal">
        <lane id=":n11_28_0" index="0" speed="10.36" length="11.09" shape="251.60,746.80 249.35,743.05 248.40,736.40"/>
    </edge>
    <edge id=":n11_29" function="internal">
        <lane id=":n11_29_0" index="0" speed="5.58" length="7.01" shape="258.80,746.80 260.00,744.40 263.60,742.00"/>
    </edge>
    <edge id=":n11_30" function="internal">
        <lane id=":n11_30_0" index="0" speed="4.72" length="2.88" shape="261.20,746.80 263.60,745.20"/>
    </edge>
    <edge id=":n11_31" function="internal">
        <lane id=":n11_31_0" index="0" speed="3.65" length="2.34" shape="262.00,750.00 262.40,749.20 263.60,748.40"/>
    </edge>
    <edge id=":n11_12" function="internal">
        <lane id=":n11_12_0" index="0" speed="6.51" length="9.03" shape="258.00,736.40 258.35,738.85 259.40,740.60 261.15,741.65 263.60,742.00"/>
    </edge>
    <edge id=":n11_13" function="internal">
        <lane id=":n11_13_0" index="0" speed="13.89" length="27.20" shape="254.80,736.40 254.80,763.60"/>
    </edge>
    <edge id=":n11_14" function="internal">
        <lane id=":n11_14_0" index="0" speed="10.36" length="13.42" shape="251.60,736.40 250.65,743.05 247.80,747.80 246.80,748.40"/>
    </edge>
    <edge id=":n11_15" function="internal">
        <lane id=":n11_15_0" index="0" speed="5.58" length="5.27" shape="251.60,736.40 249.20,740.00 246.80,741.20"/>
        <lane id=":n11_15_1" index="1" speed="4.72" length="5.27" shape="251.60,736.40 250.00,738.80 248.40,739.60 246.80,738.80"/>
        <lane id=":n11_15_2" index="2" speed="3.65" length="5.27" shape="251.60,736.40 250.80,737.60 250.00,738.00"/>
    </edge>
    <edge id=":n11_32" function="internal">
        <lane id=":n11_32_0" index="0" speed="10.36" length="11.09" shape="246.80,748.40 243.05,750.65 236.40,751.60"/>
    </edge>
    <edge id=":n11_33" function="internal">
        <lane id=":n11_33_0" index="0" speed="5.58" length="7.01" shape="246.80,741.20 244.40,740.00 242.00,736.40"/>
    </edge>
    <edge id=":n11_34" function="internal">
        <lane id=":n11_34_0" index="0" speed="4.72" length="2.88" shape="246.80,738.80 245.20,736.40"/>
    </edge>
    <edge id=":n11_35" function="internal">
        <lane id=":n11_35_0" index="0" speed="3.65" length="2.34" shape="250.00,738.00 249.20,737.60 248.40,736.40"/>
    </edge>
    <edge id=":n11_18" function="internal">
        <lane id=":n11_18_0" index="0" speed="6.51" length="9.03" shape="236.40,742.00 238.85,741.65 240.60,740.60 241.65,738.85 242.00,736.40"/>
    </edge>
    <edge id=":n11_19" function="internal">
        <lane id=":n11_19_0" index="0" speed="13.89" length="27.20" shape="236.40,745.20 263.60,745.20"/>
    </edge>
    <edge id=":n11_20" function="internal">
        <lane id=":n11_20_0" index="0" speed="10.36" length="13.42" shape="236.40,748.40 243.05,749.35 247.80,752.20 248.40,753.20"/>
    </edge>
    <edge id=":n11_21" function="internal">
        <lane id=":n11_21_0" index="0" speed="5.58" length="5.27" shape="236.40,748.40 240.00,750.80 241.20,753.20"/>
        <lane id=":n11_21_1" index="1" speed="4.72" length="5.27" shape="236.40,748.40 238.80,750.00 239.60,751.60 238.80,753.20"/>
        <lane id=":n11_21_2" index="2" speed="3.65" length="5.27" shape="236.40,748.40 237.60,749.20 238.00,750.00"/>
    </edge>
    <edge id=":n11_36" function="internal">
        <lane id=":n11_36_0" index="0" speed="10.36" length="11.09" shape="248.40,753.20 250.65,756.95 251.60,763.60"/>
    </edge>
    <edge id=":n11_37" function="internal">
        <lane id=":n11_37_0" index="0" speed="5.58" length="7.01" shape="241.20,753.20 240.00,755.60 236.40,758.00"/>
    </edge>
    <edge id=":n11_38" function="internal">
        <lane id=":n11_38_0" index="0" speed="4.72" length="2.88" shape="238.80,753.20 236.40,754.80"/>
    </edge>
    <edge id=":n11_39" function="internal">
        <lane id=":n11_39_0" index="0" speed="3.65" length="2.34" shape="238.00,750.00 237.60,750.80 236.40,751.60"/>
    </edge>
    <edge id=":n12_0" function="internal">
        <lane id=":n12_0_0" index="0" speed="6.51" length="9.03" shape="492.00,763.60 491.65,761.15 490.60,759.40 488.85,758.35 486.40,758.00"/>
    </edge>
    <edge id=":n12_1" function="internal">
        <lane id=":n12_1_0" index="0" speed="13.89" length="27.20" shape="495.20,763.60 495.20,736.40"/>
    </edge>
    <edge id=":n12_2" function="internal">
        <lane id=":n12_2_0" index="0" speed="10.36" length="13.42" shape="498.40,763.60 499.35,756.95 502.20,752.20 503.20,751.60"/>
    </edge>
    <edge id=":n12_3" function="internal">
        <lane id=":n12_3_0" index="0" speed="5.58" length="5.27" shape="498.40,763.60 500.80,760.00 503.20,758.80"/>
        <lane id=":n12_3_1" index="1" speed="4.72" length="5.27" shape="498.40,763.60 500.00,761.20 501.60,760.40 503.20,761.20"/>
        <lane id=":n12_3_2" index="2" speed="3.65" length="5.27" shape="498.40,763.60 499.20,762.40 500.00,762.00"/>
    </edge>
    <edge id=":n12_24" function="internal">
        <lane id=":n12_24_0" index="0" speed="10.36" length="11.09" shape="503.20,751.60 506.95,749.35 513.60,748.40"/>
    </edge>
    <edge id=":n12_25" function="internal">
        <lane id=":n12_25_0" index="0" speed="5.58" length="7.01" shape="503.20,758.80 505.60,760.00 508.00,763.60"/>
    </edge>
    <edge id=":n12_26" function="internal">
        <lane id=":n12_26_0" index="0" speed="4.72" length="2.88" shape="503.20,761.20 504.80,763.60"/>
    </edge>
    <edge id=":n12_27" function="internal">
        <lane id=":n12_27_0" index="0" speed="3.65" length="2.34" shape="500.00,762.00 500.80,762.40 501.60,763.60"/>
    </edge>
    <edge id=":n12_6" function="internal">
        <lane id=":n12_6_0" index="0" speed="6.51" length="9.03" shape="513.60,758.00 511.15,758.35 509.40,759.40 508.35,761.15 508.00,763.60"/>
    </edge>
    <edge id=":n12_7" function="internal">
        <lane id=":n12_7_0" index="0" speed="13.89" length="27.20" shape="513.60,754.80 486.40,754.80"/>
    </edge>
    <edge id=":n12_8" function="internal">
        <lane id=":n12_8_0" index="0" speed="10.36" length="13.42" shape="513.60,751.60 506.95,750.65 502.20,747.80 501.60,746.80"/>
    </edge>
    <edge id=":n12_9" function="internal">
        <lane id=":n12_9_0" index="0" speed="5.58" length="5.27" shape="513.60,751.60 510.00,749.20 508.80,746.80"/>
        <lane id=":n12_9_1" index="1" speed="4.72" length="5.27" shape="513.60,751.60 511.20,750.00 510.40,748.40 511.20,746.80"/>
        <lane id=":n12_9_2" index="2" speed="3.65" length="5.27" shape="513.60,751.60 512.40,750.80 512.00,750.00"/>
    </edge>
    <edge id=":n12_28" function="internal">
        <lane id=":n12_28_0" index="0" speed="10.36" length="11.09" shape="501.60,746.80 499.35,743.05 498.40,736.40"/>
    </edge>
    <edge id=":n12_29" function="internal">
        <lane id=":n12_29_0" index="0" speed="5.58" length="7.01" shape="508.80,746.80 510.00,744.40 513.60,742.00"/>
    </edge>
    <edge id=":n12_30" function="internal">
        <lane id=":n12_30_0" index="0" speed="4.72" length="2.88" shape="511.20,746.80 513.60,745.20"/>
    </edge>
    <edge id=":n12_31" function="internal">
        <lane id=":n12_31_0" index="0" speed="3.65" length="2.34" shape="512.00,750.00 512.40,749.20 513.60,748.40"/>
    </edge>
    <edge id=":n12_12" function="internal">
        <lane id=":n12_12_0" index="0" speed="6.51" length="9.03" shape="508.00,736.40 508.35,738.85 509.40,740.60 511.15,741.65 513.60,742.00"/>
    </edge>
    <edge id=":n12_13" function="internal">
        <lane id=":n12_13_0" index="0" speed="13.89" length="27.20" shape="504.80,736.40 504.80,763.60"/>
    </edge>
    <edge id=":n12_14" function="internal">
        <lane id=":n12_14_0" index="0" speed="10.36" length="13.42" shape="501.60,736.40 500.65,743.05 497.80,747.80 496.80,748.40"/>
    </edge>
    <edge id=":n12_15" function="internal">
        <lane id=":n12_15_0" index="0" speed="5.58" length="5.27" shape="501.60,736.40 499.20,740.00 496.80,741.20"/>
        <lane id=":n12_15_1" index="1" speed="4.72" length="5.27" shape="501.60,736.40 500.00,738.80 498.40,739.60 496.80,738.80"/>
        <lane id=":n12_15_2" index="2" speed="3.65" length="5.27" shape="501.60,736.40 500.80,737.60 500.00,738.00"/>
    </edge>
    <edge id=":n12_32" function="internal">
        <lane id=":n12_32_0" index="0" speed="10.36" length="11.09" shape="496.80,748.40 493.05,750.65 486.40,751.60"/>
    </edge>
    <edge id=":n12_33" function="internal">
        <lane id=":n12_33_0" index="0" speed="5.58" length="7.01" shape="496.80,741.20 494.40,740.00 492.00,736.40"/>
    </edge>
    <edge id=":n12_34" function="internal">
        <lane id=":n12_34_0" index="0" speed="4.72" length="2.88" shape="496.80,738.80 495.20,736.40"/>
    </edge>
    <edge id=":n12_35" function="internal">
        <lane id=":n12_35_0" index="0" speed="3.65" length="2.34" shape="500.00,738.00 499.20,737.60 498.40,736.40"/>
    </edge>
    <edge id=":n12_18" function="internal">
        <lane id=":n12_18_0" index="0" speed="6.51" length="9.03" shape="486.40,742.00 488.85,741.65 490.60,740.60 491.65,738.85 492.00,736.40"/>
    </edge>
    <edge id=":n12_19" function="internal">
        <lane id=":n12_19_0" index="0" speed="13.89" length="27.20" shape="486.40,745.20 513.60,745.20"/>
    </edge>
    <edge id=":n12_20" function="internal">
        <lane id=":n12_20_0" index="0" speed="10.36" length="13.42" shape="486.40,748.40 493.05,749.35 497.80,752.20 498.40,753.20"/>
    </edge>
    <edge id=":n12_21" function="internal">
        <lane id=":n12_21_0" index="0" speed="5.58" length="5.27" shape="486.40,748.40 490.00,750.80 491.20,753.20"/>
        <lane id=":n12_21_1" index="1" speed="4.72" length="5.27" shape="486.40,748.40 488.80,750.00 489.60,751.60 488.80,753.20"/>
        <lane id=":n12_21_2" index="2" speed="3.65" length="5.27" shape="486.40,748.40 487.60,749.20 488.00,750.00"/>
    </edge>
    <edge id=":n12_36" function="internal">
        <lane id=":n12_36_0" index="0" speed="10.36" length="11.09" shape="498.40,753.20 500.65,756.95 501.60,763.60"/>
    </edge>
    <edge id=":n12_37" function="internal">
        <lane id=":n12_37_0" index="0" speed="5.58" length="7.01" shape="491.20,753.20 490.00,755.60 486.40,758.00"/>
    </edge>
    <edge id=":n12_38" function="internal">
        <lane id=":n12_38_0" index="0" speed="4.72" length="2.88" shape="488.80,753.20 486.40,754.80"/>
    </edge>
    <edge id=":n12_39" function="internal">
        <lane id=":n12_39_0" index="0" speed="3.65" length="2.34" shape="488.00,750.00 487.60,750.80 486.40,751.60"/>
    </edge>
    <edge id=":n13_0" function="internal">
        <lane id=":n13_0_0" index="0" speed="6.51" length="9.03" shape="742.00,763.60 741.65,761.15 740.60,759.40 738.85,758.35 736.40,758.00"/>
    </edge>
    <edge id=":n13_1" function="internal">
        <lane id=":n13_1_0" index="0" speed="13.89" length="27.20" shape="745.20,763.60 745.20,736.40"/>
    </edge>
    <edge id=":n13_2" function="internal">
        <lane id=":n13_2_0" index="0" speed="10.36" length="13.42" shape="748.40,763.60 749.35,756.95 752.20,752.20 753.20,751.60"/>
    </edge>
    <edge id=":n13_3" function="internal">
        <lane id=":n13_3_0" index="0" speed="5.58" length="5.27" shape="748.40,763.60 750.80,760.00 753.20,758.80"/>
        <lane id=":n13_3_1" index="1" speed="4.72" length="5.27" shape="748.40,763.60 750.00,761.20 751.60,760.40 753.20,761.20"/>
        <lane id=":n13_3_2" index="2" speed="3.65" length="5.27" shape="748.40,763.60 749.20,762.40 750.00,762.00"/>
    </edge>
    <edge id=":n13_24" function="internal">
        <lane id=":n13_24_0" index="0" speed="10.36" length="11.09" shape="753.20,751.60 756.95,749.35 763.60,748.40"/>
    </edge>
    <edge id=":n13_25" function="internal">
        <lane id=":n13_25_0" index="0" speed="5.58" length="7.01" shape="753.20,758.80 755.60,760.00 758.00,763.60"/>
    </edge>
    <edge id=":n13_26" function="internal">
        <lane id=":n13_26_0" index="0" speed="4.72" length="2.88" shape="753.20,761.20 754.80,763.60"/>
    </edge>
    <edge id=":n13_27" function="internal">
        <lane id=":n13_27_0" index="0" speed="3.65" length="2.34" shape="750.00,762.00 750.80,762.40 751.60,763.60"/>
    </edge>
    <edge id=":n13_6" function="internal">
        <lane id=":n13_6_0" index="0" speed="6.51" length="9.03" shape="763.60,758.00 761.15,758.35 759.40,759.40 758.35,761.15 758.00,763.60"/>
    </edge>
    <edge id=":n13_7" function="internal">
        <lane id=":n13_7_0" index="0" speed="13.89" length="27.20" shape="763.60,754.80 736.40,754.80"/>
    </edge>
    <edge id=":n13_8" function="internal">
        <lane id=":n13_8_0" index="0" speed="10.36" length="13.42" shape="763.60,751.60 756.95,750.65 752.20,747.80 751.60,746.80"/>
    </edge>
    <edge id=":n13_9" function="internal">