<nodes>

	<node id="n1" x="0.0" y="+1000.0" type="traffic_light"/>
	<node id="n2" x="+250.0" y="+1000.0" type="traffic_light"/> 
	<node id="n3" x="+500.0" y="+1000.0" type="traffic_light"/> 
	<node id="n4" x="+750.0" y="+1000.0" type="traffic_light"/> 
	<node id="n5" x="+1000.0" y="+1000.0" type="traffic_light"/>

	<node id="n6" x="0.0" y="+750.0" type="traffic_light"/> 
	<node id="n7" x="+250.0" y="+750.0" type="traffic_light"/> 
	<node id="n8" x="+500.0" y="+750.0" type="traffic_light"/> 
	<node id="n9" x="+750.0" y="+750.0" type="traffic_light"/> 
	<node id="n10" x="+1000.0" y="+750.0" type="traffic_light"/>

	<node id="n11" x="0.0" y="+500.0" type="traffic_light"/> 
	<node id="n12" x="+250.0" y="+500.0" type="traffic_light"/> 
	<node id="n13" x="+500.0" y="+500.0" type="traffic_light"/> 
	<node id="n14" x="+750.0" y="+500.0" type="traffic_light"/> 
	<node id="n15" x="+1000.0" y="+500.0" type="traffic_light"/>

	<node id="n16" x="0.0" y="+250.0" type="traffic_light"/> 
	<node id="n17" x="+250.0" y="+250.0" type="traffic_light"/> 
	<node id="n18" x="+500.0" y="+250.0" type="traffic_light"/> 
	<node id="n19" x="+750.0" y="+250.0" type="traffic_light"/> 
	<node id="n20" x="+1000.0" y="+250.0" type="traffic_light"/> 

	<node id="n21" x="0.0" y="0.0" type="traffic_light"/> 
	<node id="n22" x="+250.0" y="0.0" type="traffic_light"/> 
	<node id="n23" x="+500.0" y="0.0" type="traffic_light"/> 
	<node id="n24" x="+750.0" y="0.0" type="traffic_light"/> 
	<node id="n25" x="+1000.0" y="0.0" type="traffic_light"/> 

	<node id="n26" x="+1250.0" y="0.0" type="priority"/> 
	<node id="n27" x="+1250.0" y="+250.0" type="priority"/> 
	<node id="n28" x="+1250.0" y="+500.0" type="priority"/> 
	<node id="n29" x="+1250.0" y="+750.0" type="priority"/> 
	<node id="n30" x="+1250.0" y="+1000.0" type="priority"/> 

	<node id="n31" x="+1000.0" y="+1250.0" type="priority"/> 
	<node id="n32" x="+750.0" y="+1250.0" type="priority"/> 
	<node id="n33" x="+500.0" y="+1250.0" type="priority"/> 
	<node id="n34" x="+250.0" y="+1250.0" type="priority"/> 
	<node id="n35" x="0.0" y="+1250.0" type="priority"/>

	<node id="n36" x="-250.0" y="+1000.0" type="priority"/> 
	<node id="n37" x="-250.0" y="+750.0" type="priority"/> 
	<node id="n38" x="-250.0" y="+500.0" type="priority"/> 
	<node id="n39" x="-250.0" y="+250.0" type="priority"/> 
	<node id="n40" x="-250.0" y="0.0" type="priority"/>

	<node id="n41" x="0.0" y="-250.0" type="priority"/> 
	<node id="n42" x="+250.0" y="-250.0" type="priority"/> 
	<node id="n43" x="+500.0" y="-250.0" type="priority"/> 
	<node id="n44" x="+750.0" y="-250.0" type="priority"/> 
	<node id="n45" x="+1000.0" y="-250.0" type="priority"/>

</nodes>