<connections>
<connection from="e1" to="i42" fromLane="0" toLane="0" />
<connection from="e1" to="e3" fromLane="1" toLane="1" />
<connection from="e1" to="e12" fromLane="2" toLane="2" />
<connection from="e1" to="e2" fromLane="2" toLane="0" />
<connection from="e1" to="e2" fromLane="2" toLane="1" />
<connection from="e1" to="e2" fromLane="2" toLane="2" />
<connection from="e10" to="e19" fromLane="0" toLane="0" />
<connection from="e10" to="e28" fromLane="1" toLane="1" />
<connection from="e10" to="i39" fromLane="2" toLane="2" />
<connection from="e10" to="e9" fromLane="2" toLane="0" />
<connection from="e10" to="e9" fromLane="2" toLane="1" />
<connection from="e10" to="e9" fromLane="2" toLane="2" />
<connection from="e11" to="e2" fromLane="0" toLane="0" />
<connection from="e11" to="i42" fromLane="1" toLane="1" />
<connection from="e11" to="e3" fromLane="2" toLane="2" />
<connection from="e11" to="e12" fromLane="2" toLane="0" />
<connection from="e11" to="e12" fromLane="2" toLane="1" />
<connection from="e11" to="e12" fromLane="2" toLane="2" />
<connection from="e12" to="e21" fromLane="0" toLane="0" />
<connection from="e12" to="e30" fromLane="1" toLane="1" />
<connection from="e12" to="e20" fromLane="2" toLane="2" />
<connection from="e12" to="e11" fromLane="2" toLane="0" />
<connection from="e12" to="e11" fromLane="2" toLane="1" />
<connection from="e12" to="e11" fromLane="2" toLane="2" />
<connection from="e13" to="e4" fromLane="0" toLane="0" />
<connection from="e13" to="i43" fromLane="1" toLane="1" />
<connection from="e13" to="e5" fromLane="2" toLane="2" />
<connection from="e13" to="e14" fromLane="2" toLane="0" />
<connection from="e13" to="e14" fromLane="2" toLane="1" />
<connection from="e13" to="e14" fromLane="2" toLane="2" />
<connection from="e14" to="e23" fromLane="0" toLane="0" />
<connection from="e14" to="e32" fromLane="1" toLane="1" />
<connection from="e14" to="e22" fromLane="2" toLane="2" />
<connection from="e14" to="e13" fromLane="2" toLane="0" />
<connection from="e14" to="e13" fromLane="2" toLane="1" />
<connection from="e14" to="e13" fromLane="2" toLane="2" />
<connection from="e15" to="e6" fromLane="0" toLane="0" />
<connection from="e15" to="i44" fromLane="1" toLane="1" />
<connection from="e15" to="e7" fromLane="2" toLane="2" />
<connection from="e15" to="e16" fromLane="2" toLane="0" />
<connection from="e15" to="e16" fromLane="2" toLane="1" />
<connection from="e15" to="e16" fromLane="2" toLane="2" />
<connection from="e16" to="e25" fromLane="0" toLane="0" />
<connection from="e16" to="e34" fromLane="1" toLane="1" />
<connection from="e16" to="e24" fromLane="2" toLane="2" />
<connection from="e16" to="e15" fromLane="2" toLane="0" />
<connection from="e16" to="e15" fromLane="2" toLane="1" />
<connection from="e16" to="e15" fromLane="2" toLane="2" />
<connection from="e17" to="e8" fromLane="0" toLane="0" />
<connection from="e17" to="i45" fromLane="1" toLane="1" />
<connection from="e17" to="i26" fromLane="2" toLane="2" />
<connection from="e17" to="e18" fromLane="2" toLane="0" />
<connection from="e17" to="e18" fromLane="2" toLane="1" />
<connection from="e17" to="e18" fromLane="2" toLane="2" />
<connection from="e18" to="i27" fromLane="0" toLane="0" />
<connection from="e18" to="e36" fromLane="1" toLane="1" />
<connection from="e18" to="e26" fromLane="2" toLane="2" />
<connection from="e18" to="e17" fromLane="2" toLane="0" />
<connection from="e18" to="e17" fromLane="2" toLane="1" />
<connection from="e18" to="e17" fromLane="2" toLane="2" />
<connection from="e19" to="e11" fromLane="0" toLane="0" />
<connection from="e19" to="e21" fromLane="1" toLane="1" />
<connection from="e19" to="e30" fromLane="2" toLane="2" />
<connection from="e19" to="e20" fromLane="2" toLane="0" />
<connection from="e19" to="e20" fromLane="2" toLane="1" />
<connection from="e19" to="e20" fromLane="2" toLane="2" />
<connection from="e2" to="e10" fromLane="0" toLane="0" />
<connection from="e2" to="i40" fromLane="1" toLane="1" />
<connection from="e2" to="i41" fromLane="2" toLane="2" />
<connection from="e2" to="e1" fromLane="2" toLane="0" />
<connection from="e2" to="e1" fromLane="2" toLane="1"/>
<connection from="e2" to="e1" fromLane="2" toLane="2"/>
<connection from="e20" to="e28" fromLane="0" toLane="0" />
<connection from="e20" to="i39" fromLane="1" toLane="1" />
<connection from="e20" to="e9" fromLane="2" toLane="2" />
<connection from="e20" to="e19" fromLane="2" toLane="0" />
<connection from="e20" to="e19" fromLane="2" toLane="1"/>
<connection from="e20" to="e19" fromLane="2" toLane="2"/>
<connection from="e21" to="e13" fromLane="0" toLane="0" />
<connection from="e21" to="e23" fromLane="1" toLane="1" />
<connection from="e21" to="e32" fromLane="2" toLane="2" />
<connection from="e21" to="e22" fromLane="2" toLane="0" />
<connection from="e21" to="e22" fromLane="2" toLane="1" />
<connection from="e21" to="e22" fromLane="2" toLane="2" />
<connection from="e22" to="e30" fromLane="0" toLane="0" />
<connection from="e22" to="e20" fromLane="1" toLane="1" />
<connection from="e22" to="e11" fromLane="2" toLane="2" />
<connection from="e22" to="e21" fromLane="2" toLane="0" />
<connection from="e22" to="e21" fromLane="2" toLane="1"/>
<connection from="e22" to="e21" fromLane="2" toLane="2"/>
<connection from="e23" to="e15" fromLane="0" toLane="0" />
<connection from="e23" to="e25" fromLane="1" toLane="1" />
<connection from="e23" to="e34" fromLane="2" toLane="2" />
<connection from="e23" to="e24" fromLane="2" toLane="0" />
<connection from="e23" to="e24" fromLane="2" toLane="1" />
<connection from="e23" to="e24" fromLane="2" toLane="2" />
<connection from="e24" to="e32" fromLane="0" toLane="0" />
<connection from="e24" to="e22" fromLane="1" toLane="1" />
<connection from="e24" to="e13" fromLane="2" toLane="2" />
<connection from="e24" to="e23" fromLane="2" toLane="0" />
<connection from="e24" to="e23" fromLane="2" toLane="1"/>
<connection from="e24" to="e23" fromLane="2" toLane="2"/>
<connection from="e25" to="e17" fromLane="0" toLane="0" />
<connection from="e25" to="i27" fromLane="1" toLane="1" />
<connection from="e25" to="e36" fromLane="2" toLane="2" />
<connection from="e25" to="e26" fromLane="2" toLane="0" />
<connection from="e25" to="e26" fromLane="2" toLane="1" />
<connection from="e25" to="e26" fromLane="2" toLane="2" />
<connection from="e26" to="e34" fromLane="0" toLane="0" />
<connection from="e26" to="e24" fromLane="1" toLane="1" />
<connection from="e26" to="e15" fromLane="2" toLane="2" />
<connection from="e26" to="e25" fromLane="2" toLane="0" />
<connection from="e26" to="e25" fromLane="2" toLane="1"/>
<connection from="e26" to="e25" fromLane="2" toLane="2"/>
<connection from="e27" to="i39" fromLane="0" toLane="0" />
<connection from="e27" to="e9" fromLane="1" toLane="1" />
<connection from="e27" to="e19" fromLane="2" toLane="2" />
<connection from="e27" to="e28" fromLane="2" toLane="0" />
<connection from="e27" to="e28" fromLane="2" toLane="1" />
<connection from="e27" to="e28" fromLane="2" toLane="2" />
<connection from="e28" to="e37" fromLane="0" toLane="0" />
<connection from="e28" to="e46" fromLane="1" toLane="1" />
<connection from="e28" to="i38" fromLane="2" toLane="2" />
<connection from="e28" to="e27" fromLane="2" toLane="0" />
<connection from="e28" to="e27" fromLane="2" toLane="1" />
<connection from="e28" to="e27" fromLane="2" toLane="2" />
<connection from="e29" to="e20" fromLane="0" toLane="0" />
<connection from="e29" to="e11" fromLane="1" toLane="1" />
<connection from="e29" to="e21" fromLane="2" toLane="2" />
<connection from="e29" to="e30" fromLane="2" toLane="0" />
<connection from="e29" to="e30" fromLane="2" toLane="1" />
<connection from="e29" to="e30" fromLane="2" toLane="2" />
<connection from="e3" to="i43" fromLane="0" toLane="0" />
<connection from="e3" to="e5" fromLane="1" toLane="1" />
<connection from="e3" to="e14" fromLane="2" toLane="2" />
<connection from="e3" to="e4" fromLane="2" toLane="0" />
<connection from="e3" to="e4" fromLane="2" toLane="1" />
<connection from="e3" to="e4" fromLane="2" toLane="2" />
<connection from="e30" to="e39" fromLane="0" toLane="0" />
<connection from="e30" to="e48" fromLane="1" toLane="1" />
<connection from="e30" to="e38" fromLane="2" toLane="2" />
<connection from="e30" to="e29" fromLane="2" toLane="0" />
<connection from="e30" to="e29" fromLane="2" toLane="1" />
<connection from="e30" to="e29" fromLane="2" toLane="2" />
<connection from="e31" to="e22" fromLane="0" toLane="0" />
<connection from="e31" to="e13" fromLane="1" toLane="1" />
<connection from="e31" to="e23" fromLane="2" toLane="2" />
<connection from="e31" to="e32" fromLane="2" toLane="0" />
<connection from="e31" to="e32" fromLane="2" toLane="1" />
<connection from="e31" to="e32" fromLane="2" toLane="2" />
<connection from="e32" to="e41" fromLane="0" toLane="0" />
<connection from="e32" to="e50" fromLane="1" toLane="1" />
<connection from="e32" to="e40" fromLane="2" toLane="2" />
<connection from="e32" to="e31" fromLane="2" toLane="0" />
<connection from="e32" to="e31" fromLane="2" toLane="1" />
<connection from="e32" to="e31" fromLane="2" toLane="2" />
<connection from="e33" to="e24" fromLane="0" toLane="0" />
<connection from="e33" to="e15" fromLane="1" toLane="1" />
<connection from="e33" to="e25" fromLane="2" toLane="2" />
<connection from="e33" to="e34" fromLane="2" toLane="0" />
<connection from="e33" to="e34" fromLane="2" toLane="1" />
<connection from="e33" to="e34" fromLane="2" toLane="2" />
<connection from="e34" to="e43" fromLane="0" toLane="0" />
<connection from="e34" to="e52" fromLane="1" toLane="1" />
<connection from="e34" to="e42" fromLane="2" toLane="2" />
<connection from="e34" to="e33" fromLane="2" toLane="0" />
<connection from="e34" to="e33" fromLane="2" toLane="1" />
<connection from="e34" to="e33" fromLane="2" toLane="2" />
<connection from="e35" to="e26" fromLane="0" toLane="0" />
<connection from="e35" to="e17" fromLane="1" toLane="1" />
<connection from="e35" to="i27" fromLane="2" toLane="2" />
<connection from="e35" to="e36" fromLane="2" toLane="0" />
<connection from="e35" to="e36" fromLane="2" toLane="1" />
<connection from="e35" to="e36" fromLane="2" toLane="2" />
<connection from="e36" to="i28" fromLane="0" toLane="0" />
<connection from="e36" to="e54" fromLane="1" toLane="1" />
<connection from="e36" to="e44" fromLane="2" toLane="2" />
<connection from="e36" to="e35" fromLane="2" toLane="0" />
<connection from="e36" to="e35" fromLane="2" toLane="1" />
<connection from="e36" to="e35" fromLane="2" toLane="2" />
<connection from="e37" to="e29" fromLane="0" toLane="0" />
<connection from="e37" to="e39" fromLane="1" toLane="1" />
<connection from="e37" to="e48" fromLane="2" toLane="2" />
<connection from="e37" to="e38" fromLane="2" toLane="0" />
<connection from="e37" to="e38" fromLane="2" toLane="1" />
<connection from="e37" to="e38" fromLane="2" toLane="2" />
<connection from="e38" to="e46" fromLane="0" toLane="0" />
<connection from="e38" to="i38" fromLane="1" toLane="1" />
<connection from="e38" to="e27" fromLane="2" toLane="2" />
<connection from="e38" to="e37" fromLane="2" toLane="0" />
<connection from="e38" to="e37" fromLane="2" toLane="1"/>
<connection from="e38" to="e37" fromLane="2" toLane="2"/>
<connection from="e39" to="e31" fromLane="0" toLane="0" />
<connection from="e39" to="e41" fromLane="1" toLane="1" />
<connection from="e39" to="e50" fromLane="2" toLane="2" />
<connection from="e39" to="e40" fromLane="2" toLane="0" />
<connection from="e39" to="e40" fromLane="2" toLane="1" />
<connection from="e39" to="e40" fromLane="2" toLane="2" />
<connection from="e4" to="e12" fromLane="0" toLane="0" />
<connection from="e4" to="e2" fromLane="1" toLane="1" />
<connection from="e4" to="i42" fromLane="2" toLane="2" />
<connection from="e4" to="e3" fromLane="2" toLane="0" />
<connection from="e4" to="e3" fromLane="2" toLane="1"/>
<connection from="e4" to="e3" fromLane="2" toLane="2"/>
<connection from="e40" to="e48" fromLane="0" toLane="0" />
<connection from="e40" to="e38" fromLane="1" toLane="1" />
<connection from="e40" to="e29" fromLane="2" toLane="2" />
<connection from="e40" to="e39" fromLane="2" toLane="0" />
<connection from="e40" to="e39" fromLane="2" toLane="1"/>
<connection from="e40" to="e39" fromLane="2" toLane="2"/>
<connection from="e41" to="e33" fromLane="0" toLane="0" />
<connection from="e41" to="e43" fromLane="1" toLane="1" />
<connection from="e41" to="e52" fromLane="2" toLane="2" />
<connection from="e41" to="e42" fromLane="2" toLane="0" />
<connection from="e41" to="e42" fromLane="2" toLane="1" />
<connection from="e41" to="e42" fromLane="2" toLane="2" />
<connection from="e42" to="e50" fromLane="0" toLane="0" />
<connection from="e42" to="e40" fromLane="1" toLane="1" />
<connection from="e42" to="e31" fromLane="2" toLane="2" />
<connection from="e42" to="e41" fromLane="2" toLane="0" />
<connection from="e42" to="e41" fromLane="2" toLane="1"/>
<connection from="e42" to="e41" fromLane="2" toLane="2"/>
<connection from="e43" to="e35" fromLane="0" toLane="0" />
<connection from="e43" to="i28" fromLane="1" toLane="1" />
<connection from="e43" to="e54" fromLane="2" toLane="2" />
<connection from="e43" to="e44" fromLane="2" toLane="0" />
<connection from="e43" to="e44" fromLane="2" toLane="1" />
<connection from="e43" to="e44" fromLane="2" toLane="2" />
<connection from="e44" to="e52" fromLane="0" toLane="0" />
<connection from="e44" to="e42" fromLane="1" toLane="1" />
<connection from="e44" to="e33" fromLane="2" toLane="2" />
<connection from="e44" to="e43" fromLane="2" toLane="0" />
<connection from="e44" to="e43" fromLane="2" toLane="1"/>
<connection from="e44" to="e43" fromLane="2" toLane="2"/>
<connection from="e45" to="i38" fromLane="0" toLane="0" />
<connection from="e45" to="e27" fromLane="1" toLane="1" />
<connection from="e45" to="e37" fromLane="2" toLane="2" />
<connection from="e45" to="e46" fromLane="2" toLane="0" />
<connection from="e45" to="e46" fromLane="2" toLane="1" />
<connection from="e45" to="e46" fromLane="2" toLane="2" />
<connection from="e46" to="e55" fromLane="0" toLane="0" />
<connection from="e46" to="e64" fromLane="1" toLane="1" />
<connection from="e46" to="i37" fromLane="2" toLane="2" />
<connection from="e46" to="e45" fromLane="2" toLane="0" />
<connection from="e46" to="e45" fromLane="2" toLane="1" />
<connection from="e46" to="e45" fromLane="2" toLane="2" />
<connection from="e47" to="e38" fromLane="0" toLane="0" />
<connection from="e47" to="e29" fromLane="1" toLane="1" />
<connection from="e47" to="e39" fromLane="2" toLane="2" />
<connection from="e47" to="e48" fromLane="2" toLane="0" />
<connection from="e47" to="e48" fromLane="2" toLane="1" />
<connection from="e47" to="e48" fromLane="2" toLane="2" />
<connection from="e48" to="e57" fromLane="0" toLane="0" />
<connection from="e48" to="e66" fromLane="1" toLane="1" />
<connection from="e48" to="e56" fromLane="2" toLane="2" />
<connection from="e48" to="e47" fromLane="2" toLane="0" />
<connection from="e48" to="e47" fromLane="2" toLane="1" />
<connection from="e48" to="e47" fromLane="2" toLane="2" />
<connection from="e49" to="e40" fromLane="0" toLane="0" />
<connection from="e49" to="e31" fromLane="1" toLane="1" />
<connection from="e49" to="e41" fromLane="2" toLane="2" />
<connection from="e49" to="e50" fromLane="2" toLane="0" />
<connection from="e49" to="e50" fromLane="2" toLane="1" />
<connection from="e49" to="e50" fromLane="2" toLane="2" />
<connection from="e5" to="i44" fromLane="0" toLane="0" />
<connection from="e5" to="e7" fromLane="1" toLane="1" />
<connection from="e5" to="e16" fromLane="2" toLane="2" />
<connection from="e5" to="e6" fromLane="2" toLane="0" />
<connection from="e5" to="e6" fromLane="2" toLane="1" />
<connection from="e5" to="e6" fromLane="2" toLane="2" />
<connection from="e50" to="e59" fromLane="0" toLane="0" />
<connection from="e50" to="e68" fromLane="1" toLane="1" />
<connection from="e50" to="e58" fromLane="2" toLane="2" />
<connection from="e50" to="e49" fromLane="2" toLane="0" />
<connection from="e50" to="e49" fromLane="2" toLane="1" />
<connection from="e50" to="e49" fromLane="2" toLane="2" />
<connection from="e51" to="e42" fromLane="0" toLane="0" />
<connection from="e51" to="e33" fromLane="1" toLane="1" />
<connection from="e51" to="e43" fromLane="2" toLane="2" />
<connection from="e51" to="e52" fromLane="2" toLane="0" />
<connection from="e51" to="e52" fromLane="2" toLane="1" />
<connection from="e51" to="e52" fromLane="2" toLane="2" />
<connection from="e52" to="e61" fromLane="0" toLane="0" />
<connection from="e52" to="e70" fromLane="1" toLane="1" />
<connection from="e52" to="e60" fromLane="2" toLane="2" />
<connection from="e52" to="e51" fromLane="2" toLane="0" />
<connection from="e52" to="e51" fromLane="2" toLane="1" />
<connection from="e52" to="e51" fromLane="2" toLane="2" />
<connection from="e53" to="e44" fromLane="0" toLane="0" />
<connection from="e53" to="e35" fromLane="1" toLane="1" />
<connection from="e53" to="i28" fromLane="2" toLane="2" />
<connection from="e53" to="e54" fromLane="2" toLane="0" />
<connection from="e53" to="e54" fromLane="2" toLane="1" />
<connection from="e53" to="e54" fromLane="2" toLane="2" />
<connection from="e54" to="i29" fromLane="0" toLane="0" />
<connection from="e54" to="e72" fromLane="1" toLane="1" />
<connection from="e54" to="e62" fromLane="2" toLane="2" />
<connection from="e54" to="e53" fromLane="2" toLane="0" />
<connection from="e54" to="e53" fromLane="2" toLane="1" />
<connection from="e54" to="e53" fromLane="2" toLane="2" />
<connection from="e55" to="e47" fromLane="0" toLane="0" />
<connection from="e55" to="e57" fromLane="1" toLane="1" />
<connection from="e55" to="e66" fromLane="2" toLane="2" />
<connection from="e55" to="e56" fromLane="2" toLane="0" />
<connection from="e55" to="e56" fromLane="2" toLane="1" />
<connection from="e55" to="e56" fromLane="2" toLane="2" />
<connection from="e56" to="e64" fromLane="0" toLane="0"/>
<connection from="e56" to="i37" fromLane="1" toLane="1"/>
<connection from="e56" to="e45" fromLane="2" toLane="2"/>
<connection from="e56" to="e55" fromLane="2" toLane="0"/>
<connection from="e56" to="e55" fromLane="2" toLane="1" />
<connection from="e56" to="e55" fromLane="2" toLane="2" />
<connection from="e57" to="e49" fromLane="0" toLane="0" />
<connection from="e57" to="e59" fromLane="1" toLane="1" />
<connection from="e57" to="e68" fromLane="2" toLane="2" />
<connection from="e57" to="e58" fromLane="2" toLane="0" />
<connection from="e57" to="e58" fromLane="2" toLane="1" />
<connection from="e57" to="e58" fromLane="2" toLane="2" />
<connection from="e58" to="e66" fromLane="0" toLane="0"/>
<connection from="e58" to="e56" fromLane="1" toLane="1"/>
<connection from="e58" to="e47" fromLane="2" toLane="2"/>
<connection from="e58" to="e57" fromLane="2" toLane="0"/>
<connection from="e58" to="e57" fromLane="2" toLane="1" />
<connection from="e58" to="e57" fromLane="2" toLane="2" />
<connection from="e59" to="e51" fromLane="0" toLane="0" />
<connection from="e59" to="e61" fromLane="1" toLane="1" />
<connection from="e59" to="e70" fromLane="2" toLane="2" />
<connection from="e59" to="e60" fromLane="2" toLane="0" />
<connection from="e59" to="e60" fromLane="2" toLane="1" />
<connection from="e59" to="e60" fromLane="2" toLane="2" />
<connection from="e6" to="e14" fromLane="0" toLane="0" />
<connection from="e6" to="e4" fromLane="1" toLane="1" />
<connection from="e6" to="i43" fromLane="2" toLane="2" />
<connection from="e6" to="e5" fromLane="2" toLane="0" />
<connection from="e6" to="e5" fromLane="2" toLane="1"/>
<connection from="e6" to="e5" fromLane="2" toLane="2"/>
<connection from="e60" to="e68" fromLane="0" toLane="0"/>
<connection from="e60" to="e58" fromLane="1" toLane="1"/>
<connection from="e60" to="e49" fromLane="2" toLane="2"/>
<connection from="e60" to="e59" fromLane="2" toLane="0"/>
<connection from="e60" to="e59" fromLane="2" toLane="1" />
<connection from="e60" to="e59" fromLane="2" toLane="2" />
<connection from="e61" to="e53" fromLane="0" toLane="0" />
<connection from="e61" to="i29" fromLane="1" toLane="1" />
<connection from="e61" to="e72" fromLane="2" toLane="2" />
<connection from="e61" to="e62" fromLane="2" toLane="0" />
<connection from="e61" to="e62" fromLane="2" toLane="1" />
<connection from="e61" to="e62" fromLane="2" toLane="2" />
<connection from="e62" to="e70" fromLane="0" toLane="0"/>
<connection from="e62" to="e60" fromLane="1" toLane="1"/>
<connection from="e62" to="e51" fromLane="2" toLane="2"/>
<connection from="e62" to="e61" fromLane="2" toLane="0"/>
<connection from="e62" to="e61" fromLane="2" toLane="1" />
<connection from="e62" to="e61" fromLane="2" toLane="2" />
<connection from="e63" to="i37" fromLane="0" toLane="0"/>
<connection from="e63" to="e45" fromLane="1" toLane="1"/>
<connection from="e63" to="e55" fromLane="2" toLane="2"/>
<connection from="e63" to="e64" fromLane="2" toLane="0"/>
<connection from="e63" to="e64" fromLane="2" toLane="1"/>
<connection from="e63" to="e64" fromLane="2" toLane="2"/>
<connection from="e64" to="e73" fromLane="0" toLane="0" />
<connection from="e64" to="i35" fromLane="1" toLane="1" />
<connection from="e64" to="i36" fromLane="2" toLane="2" />
<connection from="e64" to="e63" fromLane="2" toLane="0" />
<connection from="e64" to="e63" fromLane="2" toLane="1" />
<connection from="e64" to="e63" fromLane="2" toLane="2" />
<connection from="e65" to="e56" fromLane="0" toLane="0"/>
<connection from="e65" to="e47" fromLane="1" toLane="1"/>
<connection from="e65" to="e57" fromLane="2" toLane="2"/>
<connection from="e65" to="e66" fromLane="2" toLane="0"/>
<connection from="e65" to="e66" fromLane="2" toLane="1"/>
<connection from="e65" to="e66" fromLane="2" toLane="2"/>
<connection from="e66" to="e75" fromLane="0" toLane="0" />
<connection from="e66" to="i34" fromLane="1" toLane="1" />
<connection from="e66" to="e74" fromLane="2" toLane="2" />
<connection from="e66" to="e65" fromLane="2" toLane="0" />
<connection from="e66" to="e65" fromLane="2" toLane="1" />
<connection from="e66" to="e65" fromLane="2" toLane="2" />
<connection from="e67" to="e58" fromLane="0" toLane="0"/>
<connection from="e67" to="e49" fromLane="1" toLane="1"/>
<connection from="e67" to="e59" fromLane="2" toLane="2"/>
<connection from="e67" to="e68" fromLane="2" toLane="0"/>
<connection from="e67" to="e68" fromLane="2" toLane="1"/>
<connection from="e67" to="e68" fromLane="2" toLane="2"/>
<connection from="e68" to="e77" fromLane="0" toLane="0" />
<connection from="e68" to="i33" fromLane="1" toLane="1" />
<connection from="e68" to="e76" fromLane="2" toLane="2" />
<connection from="e68" to="e67" fromLane="2" toLane="0" />
<connection from="e68" to="e67" fromLane="2" toLane="1" />
<connection from="e68" to="e67" fromLane="2" toLane="2" />
<connection from="e69" to="e60" fromLane="0" toLane="0"/>
<connection from="e69" to="e51" fromLane="1" toLane="1"/>
<connection from="e69" to="e61" fromLane="2" toLane="2"/>
<connection from="e69" to="e70" fromLane="2" toLane="0"/>
<connection from="e69" to="e70" fromLane="2" toLane="1"/>
<connection from="e69" to="e70" fromLane="2" toLane="2"/>
<connection from="e7" to="i45" fromLane="0" toLane="0" />
<connection from="e7" to="i26" fromLane="1" toLane="1" />
<connection from="e7" to="e18" fromLane="2" toLane="2" />
<connection from="e7" to="e8" fromLane="2" toLane="0" />
<connection from="e7" to="e8" fromLane="2" toLane="1" />
<connection from="e7" to="e8" fromLane="2" toLane="2" />
<connection from="e70" to="e79" fromLane="0" toLane="0" />
<connection from="e70" to="i32" fromLane="1" toLane="1" />
<connection from="e70" to="e78" fromLane="2" toLane="2" />
<connection from="e70" to="e69" fromLane="2" toLane="0" />
<connection from="e70" to="e69" fromLane="2" toLane="1" />
<connection from="e70" to="e69" fromLane="2" toLane="2" />
<connection from="e71" to="e62" fromLane="0" toLane="0" />
<connection from="e71" to="e53" fromLane="1" toLane="1" />
<connection from="e71" to="i29" fromLane="2" toLane="2" />
<connection from="e71" to="e72" fromLane="2" toLane="0" />
<connection from="e71" to="e72" fromLane="2" toLane="1" />
<connection from="e71" to="e72" fromLane="2" toLane="2" />
<connection from="e72" to="i30" fromLane="0" toLane="0" />
<connection from="e72" to="i31" fromLane="1" toLane="1" />
<connection from="e72" to="e80" fromLane="2" toLane="2" />
<connection from="e72" to="e71" fromLane="2" toLane="0" />
<connection from="e72" to="e71" fromLane="2" toLane="1" />
<connection from="e72" to="e71" fromLane="2" toLane="2" />
<connection from="e73" to="e65" fromLane="0" toLane="0" />
<connection from="e73" to="e75" fromLane="1" toLane="1" />
<connection from="e73" to="i34" fromLane="2" toLane="2" />
<connection from="e73" to="e74" fromLane="2" toLane="0" />
<connection from="e73" to="e74" fromLane="2" toLane="1" />
<connection from="e73" to="e74" fromLane="2" toLane="2" />
<connection from="e74" to="i35" fromLane="0" toLane="0"/>
<connection from="e74" to="i36" fromLane="1" toLane="1"/>
<connection from="e74" to="e63" fromLane="2" toLane="2"/>
<connection from="e74" to="e73" fromLane="2" toLane="0"/>
<connection from="e74" to="e73" fromLane="2" toLane="1" />
<connection from="e74" to="e73" fromLane="2" toLane="2" />
<connection from="e75" to="e67" fromLane="0" toLane="0" />
<connection from="e75" to="e77" fromLane="1" toLane="1" />
<connection from="e75" to="i33" fromLane="2" toLane="2" />
<connection from="e75" to="e76" fromLane="2" toLane="0" />
<connection from="e75" to="e76" fromLane="2" toLane="1" />
<connection from="e75" to="e76" fromLane="2" toLane="2" />
<connection from="e76" to="i34" fromLane="0" toLane="0"/>
<connection from="e76" to="e74" fromLane="1" toLane="1"/>
<connection from="e76" to="e65" fromLane="2" toLane="2"/>
<connection from="e76" to="e75" fromLane="2" toLane="0"/>
<connection from="e76" to="e75" fromLane="2" toLane="1" />
<connection from="e76" to="e75" fromLane="2" toLane="2" />
<connection from="e77" to="e69" fromLane="0" toLane="0" />
<connection from="e77" to="e79" fromLane="1" toLane="1" />
<connection from="e77" to="i32" fromLane="2" toLane="2" />
<connection from="e77" to="e78" fromLane="2" toLane="0" />
<connection from="e77" to="e78" fromLane="2" toLane="1" />
<connection from="e77" to="e78" fromLane="2" toLane="2" />
<connection from="e78" to="i33" fromLane="0" toLane="0"/>
<connection from="e78" to="e76" fromLane="1" toLane="1"/>
<connection from="e78" to="e67" fromLane="2" toLane="2"/>
<connection from="e78" to="e77" fromLane="2" toLane="0"/>
<connection from="e78" to="e77" fromLane="2" toLane="1" />
<connection from="e78" to="e77" fromLane="2" toLane="2" />
<connection from="e79" to="e71" fromLane="0" toLane="0" />
<connection from="e79" to="i30" fromLane="1" toLane="1" />
<connection from="e79" to="i31" fromLane="2" toLane="2" />
<connection from="e79" to="e80" fromLane="2" toLane="0" />
<connection from="e79" to="e80" fromLane="2" toLane="1" />
<connection from="e79" to="e80" fromLane="2" toLane="2" />
<connection from="e8" to="e16" fromLane="0" toLane="0" />
<connection from="e8" to="e6" fromLane="1" toLane="1" />
<connection from="e8" to="i44" fromLane="2" toLane="2" />
<connection from="e8" to="e7" fromLane="2" toLane="0" />
<connection from="e8" to="e7" fromLane="2" toLane="1"/>
<connection from="e8" to="e7" fromLane="2" toLane="2"/>
<connection from="e80" to="i32" fromLane="0" toLane="0"/>
<connection from="e80" to="e78" fromLane="1" toLane="1"/>
<connection from="e80" to="e69" fromLane="2" toLane="2"/>
<connection from="e80" to="e79" fromLane="2" toLane="0"/>
<connection from="e80" to="e79" fromLane="2" toLane="1" />
<connection from="e80" to="e79" fromLane="2" toLane="2" />
<connection from="e9" to="i40" fromLane="0" toLane="0" />
<connection from="e9" to="i41" fromLane="1" toLane="1" />
<connection from="e9" to="e1" fromLane="2" toLane="2" />
<connection from="e9" to="e10" fromLane="2" toLane="0" />
<connection from="e9" to="e10" fromLane="2" toLane="1" />
<connection from="e9" to="e10" fromLane="2" toLane="2" />
<connection from="i26" to="o26" fromLane="2" toLane="2"/>
<connection from="i27" to="o27" fromLane="2" toLane="2"/>
<connection from="i28" to="o28" fromLane="2" toLane="2"/>
<connection from="i29" to="o29" fromLane="2" toLane="2"/>
<connection from="i30" to="o30" fromLane="2" toLane="2"/>
<connection from="i31" to="o31" fromLane="2" toLane="2"/>
<connection from="i32" to="o32" fromLane="2" toLane="2"/>
<connection from="i33" to="o33" fromLane="2" toLane="2"/>
<connection from="i34" to="o34" fromLane="2" toLane="2"/>
<connection from="i35" to="o35" fromLane="2" toLane="2"/>
<connection from="i36" to="o36" fromLane="2" toLane="2"/>
<connection from="i37" to="o37" fromLane="2" toLane="2"/>
<connection from="i38" to="o38" fromLane="2" toLane="2"/>
<connection from="i39" to="o39" fromLane="2" toLane="2"/>
<connection from="i40" to="o40" fromLane="2" toLane="2"/>
<connection from="i41" to="o41" fromLane="2" toLane="2"/>
<connection from="i42" to="o42" fromLane="2" toLane="2"/>
<connection from="i43" to="o43" fromLane="2" toLane="2"/>
<connection from="i44" to="o44" fromLane="2" toLane="2"/>
<connection from="i45" to="o45" fromLane="2" toLane="2"/>
<connection from="o26" to="e18" fromLane="0" toLane="0" />
<connection from="o26" to="e8" fromLane="1" toLane="1" />
<connection from="o26" to="i45" fromLane="2" toLane="2" />
<connection from="o26" to="i26" fromLane="2" toLane="0" />
<connection from="o26" to="i26" fromLane="2" toLane="1"/>
<connection from="o26" to="i26" fromLane="2" toLane="2"/>
<connection from="o27" to="e36" fromLane="0" toLane="0" />
<connection from="o27" to="e26" fromLane="1" toLane="1" />
<connection from="o27" to="e17" fromLane="2" toLane="2" />
<connection from="o27" to="i27" fromLane="2" toLane="0" />
<connection from="o27" to="i27" fromLane="2" toLane="1"/>