<routes>
<vType id="car"
     vClass="passenger" length="7" accel="4" decel="2"
     sigma="1.0" maxspeed="20"/>
<vehicle id="1" type="car" depart="1.00"> 
     <route edges="e68 e77 e79"/>
</vehicle>
<vehicle id="2" type="car" depart="2.00"> 
     <route edges="e63 e45 e27 e19"/>
</vehicle>
<vehicle id="3" type="car" depart="3.00"> 
     <route edges="e60 e49"/>
</vehicle>
<vehicle id="4" type="car" depart="4.00"> 
     <route edges="e36 e54 e62 e60 e58"/>
</vehicle>
<vehicle id="5" type="car" depart="5.00"> 
     <route edges="e66 e75 e77"/>
</vehicle>
<vehicle id="6" type="car" depart="6.00"> 
     <route edges="e43"/>
</vehicle>
<vehicle id="7" type="car" depart="7.00"> 
     <route edges="e19 e21 e23 e25"/>
</vehicle>
<vehicle id="8" type="car" depart="8.00"> 
     <route edges="e71 e53"/>
</vehicle>
<vehicle id="9" type="car" depart="9.00"> 
     <route edges="e19"/>
</vehicle>
<vehicle id="10" type="car" depart="10.00"> 
     <route edges="e6 e4"/>
</vehicle>
<vehicle id="11" type="car" depart="11.00"> 
     <route edges="e15 e7"/>
</vehicle>
<vehicle id="12" type="car" depart="12.00"> 
     <route edges="e66 e74"/>
</vehicle>
<vehicle id="13" type="car" depart="13.00"> 
     <route edges="e64 e73 e75 e77"/>
</vehicle>
<vehicle id="14" type="car" depart="14.00"> 
     <route edges="e8 e6"/>
</vehicle>
<vehicle id="15" type="car" depart="15.00"> 
     <route edges="e49 e31 e13 e5 e7"/>
</vehicle>
<vehicle id="16" type="car" depart="16.00"> 
     <route edges="e60 e58 e56 e45"/>
</vehicle>
<vehicle id="17" type="car" depart="17.00"> 
     <route edges="e37"/>
</vehicle>
<vehicle id="18" type="car" depart="18.00"> 
     <route edges="e63 e45 e27 e19 e21"/>
</vehicle>
<vehicle id="19" type="car" depart="19.00"> 
     <route edges="e28 e46 e64"/>
</vehicle>
<vehicle id="20" type="car" depart="20.00"> 
     <route edges="e30 e48 e66 e75"/>
</vehicle>
<vehicle id="21" type="car" depart="21.00"> 
     <route edges="e73"/>
</vehicle>
<vehicle id="22" type="car" depart="22.00"> 
     <route edges="e69 e51 e33 e25"/>
</vehicle>
<vehicle id="23" type="car" depart="23.00"> 
     <route edges="e42 e40 e29 e11"/>
</vehicle>
<vehicle id="24" type="car" depart="24.00"> 
     <route edges="e49 e31 e13"/>
</vehicle>
<vehicle id="25" type="car" depart="25.00"> 
     <route edges="e50 e68"/>
</vehicle>
<vehicle id="26" type="car" depart="26.00"> 
     <route edges="e70"/>
</vehicle>
<vehicle id="27" type="car" depart="27.00"> 
     <route edges="e80 e78"/>
</vehicle>
<vehicle id="28" type="car" depart="28.00"> 
     <route edges="e50 e68"/>
</vehicle>
<vehicle id="29" type="car" depart="29.00"> 
     <route edges="e74"/>
</vehicle>
<vehicle id="30" type="car" depart="30.00"> 
     <route edges="e16 e24 e22"/>
</vehicle>
<vehicle id="31" type="car" depart="31.00"> 
     <route edges="e75 e77"/>
</vehicle>
<vehicle id="32" type="car" depart="32.00"> 
     <route edges="e36 e54 e62 e60 e58"/>
</vehicle>
<vehicle id="33" type="car" depart="33.00"> 
     <route edges="e39 e41 e43"/>
</vehicle>
<vehicle id="34" type="car" depart="34.00"> 
     <route edges="e52"/>
</vehicle>
<vehicle id="35" type="car" depart="35.00"> 
     <route edges="e80 e78 e76 e74 e63"/>
</vehicle>
<vehicle id="36" type="car" depart="36.00"> 
     <route edges="e10 e28 e46 e55"/>
</vehicle>
<vehicle id="37" type="car" depart="37.00"> 
     <route edges="e10 e28 e37 e39 e41 e43"/>
</vehicle>
<vehicle id="38" type="car" depart="38.00"> 
     <route edges="e58 e47 e29"/>
</vehicle>
<vehicle id="39" type="car" depart="39.00"> 
     <route edges="e68 e77 e79"/>
</vehicle>
<vehicle id="40" type="car" depart="40.00"> 
     <route edges="e80 e69"/>
</vehicle>
<vehicle id="41" type="car" depart="41.00"> 
     <route edges="e14 e23 e25"/>
</vehicle>
<vehicle id="42" type="car" depart="42.00"> 
     <route edges="e52 e60"/>
</vehicle>
<vehicle id="43" type="car" depart="43.00"> 
     <route edges="e8 e6 e4"/>
</vehicle>
<vehicle id="44" type="car" depart="44.00"> 
     <route edges="e63 e55 e57 e59 e61"/>
</vehicle>
<vehicle id="45" type="car" depart="45.00"> 
     <route edges="e30 e48 e57 e59 e61"/>
</vehicle>
<vehicle id="46" type="car" depart="46.00"> 
     <route edges="e30 e48 e66"/>
</vehicle>
<vehicle id="47" type="car" depart="47.00"> 
     <route edges="e77 e79"/>
</vehicle>
<vehicle id="48" type="car" depart="48.00"> 
     <route edges="e13"/>
</vehicle>
<vehicle id="49" type="car" depart="49.00"> 
     <route edges="e65 e57"/>
</vehicle>
<vehicle id="50" type="car" depart="50.00"> 
     <route edges="e76 e74"/>
</vehicle>
<vehicle id="51" type="car" depart="51.00"> 
     <route edges="e29 e21 e23 e25"/>
</vehicle>
<vehicle id="52" type="car" depart="52.00"> 
     <route edges="e55 e57"/>
</vehicle>
<vehicle id="53" type="car" depart="53.00"> 
     <route edges="e58"/>
</vehicle>
<vehicle id="54" type="car" depart="54.00"> 
     <route edges="e62 e60 e49"/>
</vehicle>
<vehicle id="55" type="car" depart="55.00"> 
     <route edges="e34 e52 e70 e78 e76"/>
</vehicle>
<vehicle id="56" type="car" depart="56.00"> 
     <route edges="e28"/>
</vehicle>
<vehicle id="57" type="car" depart="57.00"> 
     <route edges="e16"/>
</vehicle>
<vehicle id="58" type="car" depart="58.00"> 
     <route edges="e16 e34"/>
</vehicle>
<vehicle id="59" type="car" depart="59.00"> 
     <route edges="e24 e22 e20"/>
</vehicle>
<vehicle id="60" type="car" depart="60.00"> 
     <route edges="e65 e47 e29 e11"/>
</vehicle>
<vehicle id="61" type="car" depart="61.00"> 
     <route edges="e74"/>
</vehicle>
<vehicle id="62" type="car" depart="62.00"> 
     <route edges="e45 e27 e19 e21 e23 e25"/>
</vehicle>
<vehicle id="63" type="car" depart="63.00"> 
     <route edges="e55"/>
</vehicle>
<vehicle id="64" type="car" depart="64.00"> 
     <route edges="e30 e48 e66 e74"/>
</vehicle>
<vehicle id="65" type="car" depart="65.00"> 
     <route edges="e47 e29 e11 e3"/>
</vehicle>
<vehicle id="66" type="car" depart="66.00"> 
     <route edges="e7"/>
</vehicle>
<vehicle id="67" type="car" depart="67.00"> 
     <route edges="e64 e73"/>
</vehicle>
<vehicle id="68" type="car" depart="68.00"> 
     <route edges="e80"/>
</vehicle>
<vehicle id="69" type="car" depart="69.00"> 
     <route edges="e74 e63 e45 e27 e9"/>
</vehicle>
<vehicle id="70" type="car" depart="70.00"> 
     <route edges="e19 e21 e23"/>
</vehicle>
<vehicle id="71" type="car" depart="71.00"> 
     <route edges="e18 e36 e44 e42"/>
</vehicle>
<vehicle id="72" type="car" depart="72.00"> 
     <route edges="e64 e73 e75 e77 e79"/>
</vehicle>
<vehicle id="73" type="car" depart="73.00"> 
     <route edges="e44 e42 e40"/>
</vehicle>
<vehicle id="74" type="car" depart="74.00"> 
     <route edges="e12"/>
</vehicle>
<vehicle id="75" type="car" depart="75.00"> 
     <route edges="e44 e42 e40 e38 e27 e9"/>
</vehicle>
<vehicle id="76" type="car" depart="76.00"> 
     <route edges="e49 e31 e13 e5 e7"/>
</vehicle>
<vehicle id="77" type="car" depart="77.00"> 
     <route edges="e10 e19 e21 e23 e25"/>
</vehicle>
<vehicle id="78" type="car" depart="78.00"> 
     <route edges="e34 e52 e61"/>
</vehicle>
<vehicle id="79" type="car" depart="79.00"> 
     <route edges="e80 e78 e76 e65 e47 e29 e11"/>
</vehicle>
<vehicle id="80" type="car" depart="80.00"> 
     <route edges="e29 e11"/>
</vehicle>
<vehicle id="81" type="car" depart="81.00"> 
     <route edges="e50 e58"/>
</vehicle>
<vehicle id="82" type="car" depart="82.00"> 
     <route edges="e78 e76 e65 e47"/>
</vehicle>
<vehicle id="83" type="car" depart="83.00"> 
     <route edges="e51"/>
</vehicle>
<vehicle id="84" type="car" depart="84.00"> 
     <route edges="e74 e63 e45 e27"/>
</vehicle>
<vehicle id="85" type="car" depart="85.00"> 
     <route edges="e27 e9 e1 e3 e5"/>
</vehicle>
<vehicle id="86" type="car" depart="86.00"> 
     <route edges="e54 e62 e60 e58 e56"/>
</vehicle>
<vehicle id="87" type="car" depart="87.00"> 
     <route edges="e29 e21 e23 e25"/>
</vehicle>
<vehicle id="88" type="car" depart="88.00"> 
     <route edges="e36 e54 e62 e60 e58"/>
</vehicle>
<vehicle id="89" type="car" depart="89.00"> 
     <route edges="e63"/>
</vehicle>
<vehicle id="90" type="car" depart="90.00"> 
     <route edges="e67 e49"/>
</vehicle>
<vehicle id="91" type="car" depart="91.00"> 
     <route edges="e33 e15 e7"/>
</vehicle>
<vehicle id="92" type="car" depart="92.00"> 
     <route edges="e12 e30 e48"/>
</vehicle>
<vehicle id="93" type="car" depart="93.00"> 
     <route edges="e18 e36 e54 e62 e60"/>
</vehicle>
<vehicle id="94" type="car" depart="94.00"> 
     <route edges="e56"/>
</vehicle>
<vehicle id="95" type="car" depart="95.00"> 
     <route edges="e10 e28 e46 e64 e73 e75 e77 e79"/>
</vehicle>
<vehicle id="96" type="car" depart="96.00"> 
     <route edges="e10 e28 e46"/>
</vehicle>
<vehicle id="97" type="car" depart="97.00"> 
     <route edges="e73 e75 e77"/>
</vehicle>
<vehicle id="98" type="car" depart="98.00"> 
     <route edges="e50 e68 e76 e74"/>
</vehicle>
<vehicle id="99" type="car" depart="99.00"> 
     <route edges="e78 e76 e65 e47 e29"/>
</vehicle>
<vehicle id="100" type="car" depart="100.00"> 
     <route edges="e44 e42 e40 e38"/>
</vehicle>
<vehicle id="101" type="car" depart="101.00"> 
     <route edges="e54 e72 e80"/>
</vehicle>
<vehicle id="102" type="car" depart="102.00"> 
     <route edges="e18 e36 e54 e72 e80"/>
</vehicle>
<vehicle id="103" type="car" depart="103.00"> 
     <route edges="e33 e15 e7"/>
</vehicle>
<vehicle id="104" type="car" depart="104.00"> 
     <route edges="e12 e30 e48 e66 e75 e77 e79"/>
</vehicle>
<vehicle id="105" type="car" depart="105.00"> 
     <route edges="e22"/>
</vehicle>
<vehicle id="106" type="car" depart="106.00"> 
     <route edges="e80 e78 e76 e74 e63"/>
</vehicle>
<vehicle id="107" type="car" depart="107.00"> 
     <route edges="e18 e36 e54 e72 e80 e78 e76"/>
</vehicle>
<vehicle id="108" type="car" depart="108.00"> 
     <route edges="e24 e13"/>
</vehicle>
<vehicle id="109" type="car" depart="109.00"> 
     <route edges="e76 e74 e63 e45 e27"/>
</vehicle>
<vehicle id="110" type="car" depart="110.00"> 
     <route edges="e54 e72 e80 e78 e76 e74"/>
</vehicle>
<vehicle id="111" type="car" depart="111.00"> 
     <route edges="e49 e31 e13 e5"/>
</vehicle>
<vehicle id="112" type="car" depart="112.00"> 
     <route edges="e40 e29 e11"/>
</vehicle>
<vehicle id="113" type="car" depart="113.00"> 
     <route edges="e60 e58 e47 e29 e11"/>
</vehicle>
<vehicle id="114" type="car" depart="114.00"> 
     <route edges="e31 e13"/>
</vehicle>
<vehicle id="115" type="car" depart="115.00"> 
     <route edges="e78"/>
</vehicle>
<vehicle id="116" type="car" depart="116.00"> 
     <route edges="e9 e1 e3 e5 e7"/>
</vehicle>
<vehicle id="117" type="car" depart="117.00"> 
     <route edges="e62 e60"/>
</vehicle>
<vehicle id="118" type="car" depart="118.00"> 
     <route edges="e46 e64"/>
</vehicle>
<vehicle id="119" type="car" depart="119.00"> 
     <route edges="e12 e30 e48 e57 e59 e61"/>
</vehicle>
<vehicle id="120" type="car" depart="120.00"> 
     <route edges="e80 e78 e76 e74 e63 e45"/>
</vehicle>
<vehicle id="121" type="car" depart="121.00"> 
     <route edges="e54 e72"/>
</vehicle>
<vehicle id="122" type="car" depart="122.00"> 
     <route edges="e27 e19 e21 e23 e25"/>
</vehicle>
<vehicle id="123" type="car" depart="123.00"> 
     <route edges="e29 e21"/>
</vehicle>
<vehicle id="124" type="car" depart="124.00"> 
     <route edges="e51 e33"/>
</vehicle>
<vehicle id="125" type="car" depart="125.00"> 
     <route edges="e58"/>
</vehicle>
<vehicle id="126" type="car" depart="126.00"> 
     <route edges="e33 e25"/>
</vehicle>
<vehicle id="127" type="car" depart="127.00"> 
     <route edges="e12 e30 e48 e57 e59 e61"/>
</vehicle>
<vehicle id="128" type="car" depart="128.00"> 
     <route edges="e54 e62 e60 e58 e56"/>
</vehicle>
<vehicle id="129" type="car" depart="129.00"> 
     <route edges="e18 e36 e54 e62 e60 e58"/>
</vehicle>
<vehicle id="130" type="car" depart="130.00"> 
     <route edges="e63 e45 e27 e19 e21 e23 e25"/>
</vehicle>
<vehicle id="131" type="car" depart="131.00"> 
     <route edges="e8 e6 e4"/>
</vehicle>
<vehicle id="132" type="car" depart="132.00"> 
     <route edges="e28 e46 e64 e73 e75 e77"/>
</vehicle>
<vehicle id="133" type="car" depart="133.00"> 
     <route edges="e10"/>
</vehicle>
<vehicle id="134" type="car" depart="134.00"> 
     <route edges="e46 e64"/>
</vehicle>
<vehicle id="135" type="car" depart="135.00"> 
     <route edges="e36"/>
</vehicle>
<vehicle id="136" type="car" depart="136.00"> 
     <route edges="e64 e73"/>
</vehicle>
<vehicle id="137" type="car" depart="137.00"> 
     <route edges="e6 e4"/>
</vehicle>
<vehicle id="138" type="car" depart="138.00"> 
     <route edges="e28 e37 e39"/>
</vehicle>
<vehicle id="139" type="car" depart="139.00"> 
     <route edges="e12 e30"/>
</vehicle>
<vehicle id="140" type="car" depart="140.00"> 
     <route edges="e25"/>
</vehicle>
<vehicle id="141" type="car" depart="141.00"> 
     <route edges="e45 e37 e39 e41"/>
</vehicle>
<vehicle id="142" type="car" depart="142.00"> 
     <route edges="e33 e25"/>
</vehicle>
<vehicle id="143" type="car" depart="143.00"> 
     <route edges="e18 e36 e54 e72"/>
</vehicle>
<vehicle id="144" type="car" depart="144.00"> 
     <route edges="e54 e72 e80"/>
</vehicle>
<vehicle id="145" type="car" depart="145.00"> 
     <route edges="e77 e79"/>
</vehicle>
<vehicle id="146" type="car" depart="146.00"> 
     <route edges="e50 e68 e77"/>
</vehicle>
<vehicle id="147" type="car" depart="147.00"> 
     <route edges="e45 e27 e19 e21 e23"/>
</vehicle>
<vehicle id="148" type="car" depart="148.00"> 
     <route edges="e78 e76 e65 e47 e29 e11"/>
</vehicle>
<vehicle id="149" type="car" depart="149.00"> 
     <route edges="e58"/>
</vehicle>
<vehicle id="150" type="car" depart="150.00"> 
     <route edges="e54 e62 e60"/>
</vehicle>
<vehicle id="151" type="car" depart="151.00"> 
     <route edges="e29 e21 e23 e25"/>
</vehicle>
<vehicle id="152" type="car" depart="152.00"> 
     <route edges="e80 e78 e76 e65 e47 e29"/>
</vehicle>
<vehicle id="153" type="car" depart="153.00"> 
     <route edges="e34 e52 e70"/>
</vehicle>
<vehicle id="154" type="car" depart="154.00"> 
     <route edges="e47 e29 e11 e3"/>
</vehicle>
<vehicle id="155" type="car" depart="155.00"> 
     <route edges="e52 e70 e78 e76 e74"/>
</vehicle>
<vehicle id="156" type="car" depart="156.00"> 
     <route edges="e64 e73"/>
</vehicle>
<vehicle id="157" type="car" depart="157.00"> 
     <route edges="e73 e75 e77 e79"/>
</vehicle>
<vehicle id="158" type="car" depart="158.00"> 
     <route edges="e58 e47"/>
</vehicle>
<vehicle id="159" type="car" depart="159.00"> 
     <route edges="e49 e31 e13 e5"/>
</vehicle>
<vehicle id="160" type="car" depart="160.00"> 
     <route edges="e8 e6 e4 e2"/>
</vehicle>
<vehicle id="161" type="car" depart="161.00"> 
     <route edges="e26 e15"/>
</vehicle>
<vehicle id="162" type="car" depart="162.00"> 
     <route edges="e33"/>
</vehicle>
<vehicle id="163" type="car" depart="163.00"> 
     <route edges="e34 e42"/>
</vehicle>
<vehicle id="164" type="car" depart="164.00"> 
     <route edges="e1 e3 e5 e7"/>
</vehicle>
<vehicle id="165" type="car" depart="165.00"> 
     <route edges="e63 e45 e37 e39"/>
</vehicle>
<vehicle id="166" type="car" depart="166.00"> 
     <route edges="e10 e19 e21 e23"/>
</vehicle>
<vehicle id="167" type="car" depart="167.00"> 
     <route edges="e63 e55"/>
</vehicle>
<vehicle id="168" type="car" depart="168.00"> 
     <route edges="e20 e9"/>
</vehicle>
<vehicle id="169" type="car" depart="169.00"> 
     <route edges="e65 e47 e29 e11"/>
</vehicle>
<vehicle id="170" type="car" depart="170.00"> 
     <route edges="e45 e27 e19 e21 e23 e25"/>
</vehicle>
<vehicle id="171" type="car" depart="171.00"> 
     <route edges="e28 e37 e39"/>
</vehicle>
<vehicle id="172" type="car" depart="172.00"> 
     <route edges="e9 e1 e3 e5 e7"/>
</vehicle>
<vehicle id="173" type="car" depart="173.00"> 
     <route edges="e16 e34 e42 e40"/>
</vehicle>
<vehicle id="174" type="car" depart="174.00"> 
     <route edges="e21 e23 e25"/>
</vehicle>
<vehicle id="175" type="car" depart="175.00"> 
     <route edges="e51 e33 e15"/>
</vehicle>
<vehicle id="176" type="car" depart="176.00"> 
     <route edges="e15 e7"/>
</vehicle>
<vehicle id="177" type="car" depart="177.00"> 
     <route edges="e76 e74 e63 e45"/>
</vehicle>
<vehicle id="178" type="car" depart="178.00"> 
     <route edges="e48 e66 e74"/>
</vehicle>
<vehicle id="179" type="car" depart="179.00"> 
     <route edges="e44 e42 e40 e29 e11"/>
</vehicle>
<vehicle id="180" type="car" depart="180.00"> 
     <route edges="e30 e48 e57 e59 e61"/>
</vehicle>
<vehicle id="181" type="car" depart="181.00"> 
     <route edges="e36 e54 e62 e60 e58"/>
</vehicle>
<vehicle id="182" type="car" depart="182.00"> 
     <route edges="e60 e58 e47 e29 e11"/>
</vehicle>
<vehicle id="183" type="car" depart="183.00"> 
     <route edges="e50 e59"/>
</vehicle>
<vehicle id="184" type="car" depart="184.00"> 
     <route edges="e28 e37 e39"/>
</vehicle>
<vehicle id="185" type="car" depart="185.00"> 
     <route edges="e44 e42 e31"/>
</vehicle>
<vehicle id="186" type="car" depart="186.00"> 
     <route edges="e67 e59"/>
</vehicle>
<vehicle id="187" type="car" depart="187.00"> 
     <route edges="e12 e30 e39"/>
</vehicle>
<vehicle id="188" type="car" depart="188.00"> 
     <route edges="e80 e78 e76 e74"/>
</vehicle>
<vehicle id="189" type="car" depart="189.00"> 
     <route edges="e70 e79"/>
</vehicle>
<vehicle id="190" type="car" depart="190.00"> 
     <route edges="e16 e34 e42 e40"/>
</vehicle>
<vehicle id="191" type="car" depart="191.00"> 
     <route edges="e29"/>
</vehicle>
<vehicle id="192" type="car" depart="192.00"> 
     <route edges="e50 e68 e77"/>
</vehicle>
<vehicle id="193" type="car" depart="193.00"> 
     <route edges="e16 e34 e42"/>
</vehicle>
<vehicle id="194" type="car" depart="194.00"> 
     <route edges="e45"/>
</vehicle>
<vehicle id="195" type="car" depart="195.00"> 
     <route edges="e12 e30 e48 e66 e74"/>
</vehicle>
<vehicle id="196" type="car" depart="196.00"> 
     <route edges="e16 e34 e42"/>
</vehicle>
<vehicle id="197" type="car" depart="197.00"> 
     <route edges="e36 e44 e42 e40"/>
</vehicle>
<vehicle id="198" type="car" depart="198.00"> 
     <route edges="e45 e37 e39 e41 e43"/>
</vehicle>
<vehicle id="199" type="car" depart="199.00"> 
     <route edges="e14 e32 e50 e68 e77 e79"/>
</vehicle>
<vehicle id="200" type="car" depart="200.00"> 
     <route edges="e62 e51 e33 e15"/>
</vehicle>
<vehicle id="201" type="car" depart="201.00"> 
     <route edges="e16 e25"/>
</vehicle>
<vehicle id="202" type="car" depart="202.00"> 
     <route edges="e62 e60 e49 e31"/>
</vehicle>
<vehicle id="203" type="car" depart="203.00"> 
     <route edges="e72 e80 e78 e76"/>
</vehicle>
<vehicle id="204" type="car" depart="204.00"> 
     <route edges="e64 e73 e75"/>
</vehicle>
<vehicle id="205" type="car" depart="205.00"> 
     <route edges="e24 e22 e11"/>
</vehicle>
<vehicle id="206" type="car" depart="206.00"> 
     <route edges="e65 e47"/>
</vehicle>
<vehicle id="207" type="car" depart="207.00"> 
     <route edges="e64"/>
</vehicle>
<vehicle id="208" type="car" depart="208.00"> 
     <route edges="e26 e24"/>
</vehicle>
<vehicle id="209" type="car" depart="209.00"> 
     <route edges="e14 e32 e50 e68 e77"/>
</vehicle>
<vehicle id="210" type="car" depart="210.00"> 
     <route edges="e12 e30 e39"/>
</vehicle>
<vehicle id="211" type="car" depart="211.00"> 
     <route edges="e24 e22 e20 e9"/>
</vehicle>
<vehicle id="212" type="car" depart="212.00"> 
     <route edges="e46 e64 e73 e75"/>
</vehicle>
<vehicle id="213" type="car" depart="213.00"> 
     <route edges="e32 e50 e59"/>
</vehicle>
<vehicle id="214" type="car" depart="214.00"> 
     <route edges="e28"/>
</vehicle>
<vehicle id="215" type="car" depart="215.00"> 
     <route edges="e73 e75 e77 e79"/>
</vehicle>
<vehicle id="216" type="car" depart="216.00"> 
     <route edges="e14 e32 e41 e43"/>
</vehicle>
<vehicle id="217" type="car" depart="217.00"> 
     <route edges="e66 e75"/>
</vehicle>
<vehicle id="218" type="car" depart="218.00"> 
     <route edges="e27 e9 e1 e3"/>
</vehicle>
<vehicle id="219" type="car" depart="219.00"> 
     <route edges="e10 e28 e46 e64 e73 e75 e77 e79"/>
</vehicle>
<vehicle id="220" type="car" depart="220.00"> 
     <route edges="e9 e1 e3 e5 e7"/>
</vehicle>
<vehicle id="221" type="car" depart="221.00"> 
     <route edges="e45 e27 e9 e1 e3 e5"/>
</vehicle>
<vehicle id="222" type="car" depart="222.00"> 
     <route edges="e42 e31 e13"/>
</vehicle>
<vehicle id="223" type="car" depart="223.00"> 
     <route edges="e46 e55"/>
</vehicle>
<vehicle id="224" type="car" depart="224.00"> 
     <route edges="e4"/>
</vehicle>
<vehicle id="225" type="car" depart="225.00"> 
     <route edges="e62 e60 e49 e31 e13"/>
</vehicle>
<vehicle id="226" type="car" depart="226.00"> 
     <route edges="e80 e78 e76 e74 e63"/>
</vehicle>
<vehicle id="227" type="car" depart="227.00"> 
     <route edges="e75 e77 e79"/>
</vehicle>
<vehicle id="228" type="car" depart="228.00"> 
     <route edges="e28 e37 e39 e41 e43"/>
</vehicle>
<vehicle id="229" type="car" depart="229.00"> 
     <route edges="e36 e54 e62 e60"/>
</vehicle>
<vehicle id="230" type="car" depart="230.00"> 
     <route edges="e10 e28 e37 e39 e41 e43"/>
</vehicle>
<vehicle id="231" type="car" depart="231.00"> 
     <route edges="e24"/>
</vehicle>
<vehicle id="232" type="car" depart="232.00"> 
     <route edges="e65 e47 e29 e11 e3"/>
</vehicle>
<vehicle id="233" type="car" depart="233.00"> 
     <route edges="e71 e53"/>
</vehicle>
<vehicle id="234" type="car" depart="234.00"> 
     <route edges="e68 e76"/>
</vehicle>
<vehicle id="235" type="car" depart="235.00"> 
     <route edges="e28 e46 e64 e73 e75 e77"/>
</vehicle>
<vehicle id="236" type="car" depart="236.00"> 
     <route edges="e80 e78 e76 e74"/>
</vehicle>
<vehicle id="237" type="car" depart="237.00"> 
     <route edges="e36 e54 e72 e80"/>
</vehicle>
<vehicle id="238" type="car" depart="238.00"> 
     <route edges="e1 e3"/>
</vehicle>
<vehicle id="239" type="car" depart="239.00"> 
     <route edges="e54 e72"/>
</vehicle>
<vehicle id="240" type="car" depart="240.00"> 
     <route edges="e40 e38 e27 e9"/>
</vehicle>
<vehicle id="241" type="car" depart="241.00"> 
     <route edges="e34 e42 e40 e38"/>
</vehicle>
<vehicle id="242" type="car" depart="242.00"> 
     <route edges="e63 e45 e27"/>
</vehicle>
<vehicle id="243" type="car" depart="243.00"> 
     <route edges="e47 e29 e11 e3 e5"/>
</vehicle>
<vehicle id="244" type="car" depart="244.00"> 
     <route edges="e51 e33 e15"/>
</vehicle>
<vehicle id="245" type="car" depart="245.00"> 
     <route edges="e69 e51 e33 e15"/>
</vehicle>
<vehicle id="246" type="car" depart="246.00"> 
     <route edges="e18 e36 e44 e42"/>
</vehicle>
<vehicle id="247" type="car" depart="247.00"> 
     <route edges="e14 e32 e50 e68 e76"/>
</vehicle>
<vehicle id="248" type="car" depart="248.00"> 
     <route edges="e62 e51"/>
</vehicle>
<vehicle id="249" type="car" depart="249.00"> 
     <route edges="e34"/>
</vehicle>
<vehicle id="250" type="car" depart="250.00"> 
     <route edges="e62 e60 e58 e47 e29"/>
</vehicle>
<vehicle id="251" type="car" depart="251.00"> 
     <route edges="e18 e26 e24 e22"/>
</vehicle>
<vehicle id="252" type="car" depart="252.00"> 
     <route edges="e48 e57 e59"/>
</vehicle>
<vehicle id="253" type="car" depart="253.00"> 
     <route edges="e63 e45 e27 e9 e1 e3"/>
</vehicle>
<vehicle id="254" type="car" depart="254.00"> 
     <route edges="e35 e17"/>
</vehicle>
<vehicle id="255" type="car" depart="255.00"> 
     <route edges="e65 e47 e39 e41"/>
</vehicle>
<vehicle id="256" type="car" depart="256.00"> 
     <route edges="e71 e53"/>
</vehicle>
<vehicle id="257" type="car" depart="257.00"> 
     <route edges="e46 e55 e57"/>
</vehicle>
<vehicle id="258" type="car" depart="258.00"> 
     <route edges="e65 e47 e39 e41"/>
</vehicle>
<vehicle id="259" type="car" depart="259.00"> 
     <route edges="e76"/>
</vehicle>
<vehicle id="260" type="car" depart="260.00"> 
     <route edges="e54 e62"/>
</vehicle>
<vehicle id="261" type="car" depart="261.00"> 
     <route edges="e58 e56"/>
</vehicle>
<vehicle id="262" type="car" depart="262.00"> 
     <route edges="e39 e41"/>
</vehicle>
<vehicle id="263" type="car" depart="263.00"> 
     <route edges="e40 e38 e27 e9"/>
</vehicle>
<vehicle id="264" type="car" depart="264.00"> 
     <route edges="e60 e49 e31 e13"/>
</vehicle>
<vehicle id="265" type="car" depart="265.00"> 
     <route edges="e32 e40 e38"/>
</vehicle>
<vehicle id="266" type="car" depart="266.00"> 
     <route edges="e49 e41"/>
</vehicle>
<vehicle id="267" type="car" depart="267.00"> 
     <route edges="e44 e42 e31 e13"/>
</vehicle>
<vehicle id="268" type="car" depart="268.00"> 
     <route edges="e66 e74"/>
</vehicle>
<vehicle id="269" type="car" depart="269.00"> 
     <route edges="e28 e46 e64 e73 e75 e77 e79"/>
</vehicle>
<vehicle id="270" type="car" depart="270.00"> 
     <route edges="e30 e48 e66"/>
</vehicle>
<vehicle id="271" type="car" depart="271.00"> 
     <route edges="e14 e22"/>
</vehicle>
<vehicle id="272" type="car" depart="272.00"> 
     <route edges="e47 e39"/>
</vehicle>
<vehicle id="273" type="car" depart="273.00"> 
     <route edges="e42 e31 e13"/>
</vehicle>
<vehicle id="274" type="car" depart="274.00"> 
     <route edges="e65 e47 e39 e41 e43"/>
</vehicle>
<vehicle id="275" type="car" depart="275.00"> 
     <route edges="e77"/>
</vehicle>
<vehicle id="276" type="car" depart="276.00"> 
     <route edges="e58"/>
</vehicle>
<vehicle id="277" type="car" depart="277.00"> 
     <route edges="e75 e77"/>
</vehicle>
<vehicle id="278" type="car" depart="278.00"> 
     <route edges="e78 e76"/>
</vehicle>
<vehicle id="279" type="car" depart="279.00"> 
     <route edges="e45 e27 e19 e21 e23 e25"/>
</vehicle>
<vehicle id="280" type="car" depart="280.00"> 
     <route edges="e28 e37 e39"/>
</vehicle>
<vehicle id="281" type="car" depart="281.00"> 
     <route edges="e60 e58 e47 e29"/>
</vehicle>
<vehicle id="282" type="car" depart="282.00"> 
     <route edges="e49 e31 e13"/>
</vehicle>
<vehicle id="283" type="car" depart="283.00"> 
     <route edges="e14 e32 e40"/>
</vehicle>
<vehicle id="284" type="car" depart="284.00"> 
     <route edges="e14 e32 e50 e68 e76 e74"/>
</vehicle>
<vehicle id="285" type="car" depart="285.00"> 
     <route edges="e14 e32 e50 e58 e56"/>
</vehicle>
<vehicle id="286" type="car" depart="286.00"> 
     <route edges="e29"/>
</vehicle>
<vehicle id="287" type="car" depart="287.00"> 
     <route edges="e27 e9 e1 e3 e5"/>
</vehicle>
<vehicle id="288" type="car" depart="288.00"> 
     <route edges="e52 e60 e58 e56"/>
</vehicle>
<vehicle id="289" type="car" depart="289.00"> 
     <route edges="e45 e27 e9 e1"/>
</vehicle>
<vehicle id="290" type="car" depart="290.00"> 
     <route edges="e72 e80 e78 e76"/>
</vehicle>
<vehicle id="291" type="car" depart="291.00"> 
     <route edges="e44 e33 e15"/>
</vehicle>
<vehicle id="292" type="car" depart="292.00"> 
     <route edges="e65 e47 e29 e21 e23 e25"/>
</vehicle>
<vehicle id="293" type="car" depart="293.00"> 
     <route edges="e34 e42 e40"/>
</vehicle>
<vehicle id="294" type="car" depart="294.00"> 
     <route edges="e12 e30 e48 e66 e74"/>
</vehicle>
<vehicle id="295" type="car" depart="295.00"> 
     <route edges="e7"/>
</vehicle>
<vehicle id="296" type="car" depart="296.00"> 
     <route edges="e69 e51 e33 e15 e7"/>
</vehicle>
<vehicle id="297" type="car" depart="297.00"> 
     <route edges="e28 e46 e64"/>
</vehicle>
<vehicle id="298" type="car" depart="298.00"> 
     <route edges="e54 e62"/>
</vehicle>
<vehicle id="299" type="car" depart="299.00"> 
     <route edges="e49 e31 e13 e5"/>
</vehicle>
<vehicle id="300" type="car" depart="300.00"> 
     <route edges="e18 e36"/>
</vehicle>
<vehicle id="301" type="car" depart="301.00"> 
     <route edges="e67 e49"/>
</vehicle>
<vehicle id="302" type="car" depart="302.00"> 
     <route edges="e16 e34 e52 e61"/>
</vehicle>
<vehicle id="303" type="car" depart="303.00"> 
     <route edges="e60 e58 e56"/>
</vehicle>
<vehicle id="304" type="car" depart="304.00"> 
     <route edges="e2"/>
</vehicle>
<vehicle id="305" type="car" depart="305.00"> 
     <route edges="e46 e64 e73 e75"/>
</vehicle>
<vehicle id="306" type="car" depart="306.00"> 
     <route edges="e67 e49 e31 e13 e5"/>
</vehicle>
<vehicle id="307" type="car" depart="307.00"> 
     <route edges="e36 e54 e62 e60"/>
</vehicle>
<vehicle id="308" type="car" depart="308.00"> 
     <route edges="e78 e76 e74 e63 e45 e27"/>
</vehicle>
<vehicle id="309" type="car" depart="309.00"> 
     <route edges="e45 e27 e19 e21"/>
</vehicle>
<vehicle id="310" type="car" depart="310.00"> 
     <route edges="e30 e48 e66 e75 e77 e79"/>
</vehicle>
<vehicle id="311" type="car" depart="311.00"> 
     <route edges="e14 e22 e20"/>
</vehicle>
<vehicle id="312" type="car" depart="312.00"> 
     <route edges="e33 e25"/>
</vehicle>
<vehicle id="313" type="car" depart="313.00"> 
     <route edges="e64 e73"/>
</vehicle>
<vehicle id="314" type="car" depart="314.00"> 
     <route edges="e76 e74 e63 e45 e27"/>
</vehicle>
<vehicle id="315" type="car" depart="315.00"> 
     <route edges="e30 e48 e57"/>
</vehicle>
<vehicle id="316" type="car" depart="316.00"> 
     <route edges="e12 e30 e48 e57 e59"/>
</vehicle>
<vehicle id="317" type="car" depart="317.00"> 
     <route edges="e12 e30 e48 e66 e75 e77 e79"/>
</vehicle>
<vehicle id="318" type="car" depart="318.00"> 
     <route edges="e16 e34 e42 e40"/>
</vehicle>
<vehicle id="319" type="car" depart="319.00"> 
     <route edges="e65 e57"/>
</vehicle>
<vehicle id="320" type="car" depart="320.00"> 
     <route edges="e42 e31 e13"/>
</vehicle>
<vehicle id="321" type="car" depart="321.00"> 
     <route edges="e63 e45 e37 e39 e41"/>
</vehicle>
<vehicle id="322" type="car" depart="322.00"> 
     <route edges="e80 e78 e67 e49 e31"/>
</vehicle>
<vehicle id="323" type="car" depart="323.00"> 
     <route edges="e18 e36 e44 e42"/>